1:0:0
     RDKit          3D

 41 43  0  0  1  0  0  0  0  0999 V2000
   -7.6867  -13.4942   -7.4530 C   0  0  0  0  0  0  0  0  0  0  0  0
   -6.1673  -13.5095   -7.7764 C   0  0  0  0  0  0  0  0  0  0  0  0
   -5.4496  -12.2702   -7.4511 N   0  0  0  0  0  0  0  0  0  0  0  0
   -5.5604  -11.9206   -6.0290 C   0  0  0  0  0  0  0  0  0  0  0  0
   -4.7648  -10.6307   -5.7092 C   0  0  0  0  0  0  0  0  0  0  0  0
   -5.2319   -9.5358   -6.5504 N   0  0  0  0  0  0  0  0  0  0  0  0
   -5.7105   -8.3280   -6.0391 C   0  0  0  0  0  0  0  0  0  0  0  0
   -6.7166   -7.5421   -6.4678 C   0  0  0  0  0  0  0  0  0  0  0  0
   -7.6155   -7.8172   -7.5886 C   0  0  0  0  0  0  0  0  0  0  0  0
   -7.6539   -8.8099   -8.3188 O   0  0  0  0  0  0  0  0  0  0  0  0
   -8.4549   -6.7559   -7.7115 N   0  0  0  0  0  0  0  0  0  0  0  0
   -9.5011   -6.6202   -8.7155 C   0  0  0  0  0  0  0  0  0  0  0  0
   -8.1864   -5.8044   -6.7103 C   0  0  0  0  0  0  0  0  0  0  0  0
   -8.8798   -4.6122   -6.4393 C   0  0  0  0  0  0  0  0  0  0  0  0
   -8.4156   -3.8611   -5.3271 C   0  0  0  0  0  0  0  0  0  0  0  0
   -7.3170   -4.2974   -4.5670 C   0  0  0  0  0  0  0  0  0  0  0  0
   -6.6478   -5.5087   -4.8394 C   0  0  0  0  0  0  0  0  0  0  0  0
   -7.1398   -6.2490   -5.9410 C   0  0  0  0  0  0  0  0  0  0  0  0
   -5.1914   -9.8793   -7.9691 C   0  0  0  0  0  0  0  0  0  0  0  0
   -5.9558  -11.1683   -8.2664 C   0  0  0  0  0  0  0  0  0  0  0  0
   -8.1665  -14.4136   -7.8022 H   0  0  0  0  0  0  0  0  0  0  0  0
   -8.2251  -12.6698   -7.9308 H   0  0  0  0  0  0  0  0  0  0  0  0
   -7.8560  -13.4250   -6.3759 H   0  0  0  0  0  0  0  0  0  0  0  0
   -5.6843  -14.3206   -7.2313 H   0  0  0  0  0  0  0  0  0  0  0  0
   -6.0067  -13.7252   -8.8383 H   0  0  0  0  0  0  0  0  0  0  0  0
   -6.6047  -11.7391   -5.7703 H   0  0  0  0  0  0  0  0  0  0  0  0
   -5.1913  -12.7453   -5.4151 H   0  0  0  0  0  0  0  0  0  0  0  0
   -4.9193  -10.3671   -4.6623 H   0  0  0  0  0  0  0  0  0  0  0  0
   -3.6887  -10.7770   -5.8484 H   0  0  0  0  0  0  0  0  0  0  0  0
   -5.1158   -8.0036   -5.1977 H   0  0  0  0  0  0  0  0  0  0  0  0
   -9.4706   -5.6338   -9.2002 H   0  0  0  0  0  0  0  0  0  0  0  0
  -10.4817   -6.8002   -8.2588 H   0  0  0  0  0  0  0  0  0  0  0  0
   -9.3811   -7.3552   -9.5067 H   0  0  0  0  0  0  0  0  0  0  0  0
   -9.7217   -4.3034   -7.0493 H   0  0  0  0  0  0  0  0  0  0  0  0
   -8.9360   -2.9409   -5.0780 H   0  0  0  0  0  0  0  0  0  0  0  0
   -6.9676   -3.6999   -3.7397 H   0  0  0  0  0  0  0  0  0  0  0  0
   -5.8207   -5.8408   -4.2158 H   0  0  0  0  0  0  0  0  0  0  0  0
   -5.5830   -9.0520   -8.5684 H   0  0  0  0  0  0  0  0  0  0  0  0
   -4.1830  -10.1444   -8.2758 H   0  0  0  0  0  0  0  0  0  0  0  0
   -5.8638  -11.4168   -9.3264 H   0  0  0  0  0  0  0  0  0  0  0  0
   -6.9953  -10.9805   -8.0479 H   0  0  0  0  0  0  0  0  0  0  0  0
  1  2  1  0
  1 21  1  0
  1 22  1  0
  1 23  1  0
  2  3  1  0
  2 24  1  0
  2 25  1  0
  3 20  1  0
  3  4  1  0
  4  5  1  0
  4 26  1  0
  4 27  1  0
  5  6  1  0
  5 28  1  0
  5 29  1  0
  6  7  1  0
  6 19  1  0
  7  8  2  3
  7 30  1  0
  8 18  1  0
  8  9  1  0
  9 10  2  0
  9 11  1  0
 11 12  1  0
 11 13  1  0
 12 31  1  0
 12 32  1  0
 12 33  1  0
 13 18  2  0
 13 14  1  0
 14 15  2  0
 14 34  1  0
 15 16  1  0
 15 35  1  0
 16 17  2  0
 16 36  1  0
 17 18  1  0
 17 37  1  0
 19 20  1  0
 19 38  1  0
 19 39  1  0
 20 40  1  0
 20 41  1  0
M  END
>  <i_m_ct_stereo_status>  (1) 
1

>  <s_m_source_file>  (1) 
/var/tmp/pbs.5076255.sched01/tmpuvpulguu/0mmv31ww_.sdf

>  <i_m_source_file_index>  (1) 
2

>  <i_lp_mmshare_version>  (1) 
48012

>  <i_f3d_flags>  (1) 
0

>  <s_epik_input>  (1) 
W0NIM11bQ0gyXU4xW0NIMl1bQ0gyXU4oW0NIMl1bQ0gyXTEpL1tDSF09QyhcQyg9TylOMltDSDNdKWMoYzIzKVtjSF1bY0hdW2NIXVtjSF0z

>  <s_epik_cmdline>  (1) 
J2VwaWtfcHl0aG9uJywgJy1waHQnLCAnMi4wJywgJy1waCcsICc3LjAnLCAnLXRuJywgJzgnLCAnLW1hJywgJzIwMCcsICctaW1hZScsICc8aW5maWxlLm1hZT4nLCAnLW9tYWUnLCAnPG91dGZpbGUubWFlPic=

>  <r_epik_Ionization_Penalty>  (1) 
0.334565

>  <r_epik_Ionization_Penalty_Charging>  (1) 
0

>  <r_epik_Ionization_Penalty_Neutral>  (1) 
0.334565

>  <r_epik_State_Penalty>  (1) 
0.329683

>  <r_epik_Charging_Adjusted_Penalty>  (1) 
0.329683

>  <i_epik_Tot_Q>  (1) 
0

>  <i_epik_Tot_abs_Q>  (1) 
0

>  <s_lp_Force_Field>  (1) 
OPLS3e

>  <r_lp_Energy>  (1) 
30.1212

>  <b_lp_Chiralities_Consistent>  (1) 
1

>  <s_lp_Variant>  (1) 
1:0-1

>  <s_i_glide_gridfile>  (1) 
pfpi4k_grid

>  <i_i_glide_lignum>  (1) 
2

>  <i_i_glide_rotatable_bonds>  (1) 
2

>  <r_i_docking_score>  (1) 
-6.65458

>  <r_i_glide_ligand_efficiency>  (1) 
-0.332729

>  <r_i_glide_ligand_efficiency_sa>  (1) 
-0.903166

>  <r_i_glide_ligand_efficiency_ln>  (1) 
-1.66542

>  <r_i_glide_gscore>  (1) 
-6.65458

>  <r_i_glide_lipo>  (1) 
-2.64203

>  <r_i_glide_hbond>  (1) 
0

>  <r_i_glide_metal>  (1) 
-0

>  <r_i_glide_rewards>  (1) 
-2.84314

>  <r_i_glide_evdw>  (1) 
-24.7041

>  <r_i_glide_ecoul>  (1) 
-1.18219

>  <r_i_glide_erotb>  (1) 
0.243126

>  <r_i_glide_esite>  (1) 
0

>  <r_i_glide_emodel>  (1) 
-33.4121

>  <r_i_glide_energy>  (1) 
-25.8863

>  <r_i_glide_einternal>  (1) 
3.59262

>  <r_i_glide_intrahb_reward>  (1) 
-0

>  <i_i_glide_confnum>  (1) 
5

>  <i_i_glide_posenum>  (1) 
35

>  <r_i_glide_eff_state_penalty>  (1) 
0

>  <ligand_id>  (1) 
1

>  <original_smiles>  (1) 
CCN1CCN(C=C2C(=O)N(C)c3ccccc32)CC1

>  <smiles>  (1) 
[H]C(=C1C(=O)N(C([H])([H])[H])c2c([H])c([H])c([H])c([H])c21)N1C([H])([H])C([H])([H])N(C([H])([H])C([H])([H])[H])C([H])([H])C1([H])[H]

$$$$
1:0:1
     RDKit          3D

 41 43  0  0  1  0  0  0  0  0999 V2000
  -10.3134  -11.9229  -10.2215 C   0  0  0  0  0  0  0  0  0  0  0  0
   -9.1904  -12.9391   -9.8721 C   0  0  0  0  0  0  0  0  0  0  0  0
   -8.2348  -12.5096   -8.8438 N   0  0  0  0  0  0  0  0  0  0  0  0
   -7.4153  -11.4096   -9.3445 C   0  0  0  0  0  0  0  0  0  0  0  0
   -6.4046  -10.9182   -8.2827 C   0  0  0  0  0  0  0  0  0  0  0  0
   -7.0552  -10.5955   -7.0137 N   0  0  0  0  0  0  0  0  0  0  0  0
   -6.9326   -9.3922   -6.3293 C   0  0  0  0  0  0  0  0  0  0  0  0
   -7.3305   -8.1504   -6.7052 C   0  0  0  0  0  0  0  0  0  0  0  0
   -8.0770   -7.8098   -7.9229 C   0  0  0  0  0  0  0  0  0  0  0  0
   -8.4787   -8.5295   -8.8151 O   0  0  0  0  0  0  0  0  0  0  0  0
   -8.2905   -6.4761   -7.9095 N   0  0  0  0  0  0  0  0  0  0  0  0
   -8.9832   -5.7327   -8.9558 C   0  0  0  0  0  0  0  0  0  0  0  0
   -7.7794   -5.9072   -6.7479 C   0  0  0  0  0  0  0  0  0  0  0  0
   -7.8258   -4.5639   -6.3168 C   0  0  0  0  0  0  0  0  0  0  0  0
   -7.2294   -4.2579   -5.0784 C   0  0  0  0  0  0  0  0  0  0  0  0
   -6.6020   -5.2627   -4.3028 C   0  0  0  0  0  0  0  0  0  0  0  0
   -6.5633   -6.5978   -4.7478 C   0  0  0  0  0  0  0  0  0  0  0  0
   -7.1669   -6.8970   -5.9795 C   0  0  0  0  0  0  0  0  0  0  0  0
   -7.8711  -11.6967   -6.5290 C   0  0  0  0  0  0  0  0  0  0  0  0
   -8.9005  -12.1217   -7.5919 C   0  0  0  0  0  0  0  0  0  0  0  0
  -10.9215  -12.2893  -11.0505 H   0  0  0  0  0  0  0  0  0  0  0  0
   -9.9537  -10.9386  -10.5269 H   0  0  0  0  0  0  0  0  0  0  0  0
  -10.9932  -11.7713   -9.3819 H   0  0  0  0  0  0  0  0  0  0  0  0
   -9.6446  -13.8692   -9.5336 H   0  0  0  0  0  0  0  0  0  0  0  0
   -8.6258  -13.1980  -10.7681 H   0  0  0  0  0  0  0  0  0  0  0  0
   -6.9076  -11.7291  -10.2568 H   0  0  0  0  0  0  0  0  0  0  0  0
   -8.0646  -10.6007   -9.6360 H   0  0  0  0  0  0  0  0  0  0  0  0
   -5.6306  -11.6648   -8.1125 H   0  0  0  0  0  0  0  0  0  0  0  0
   -5.9195  -10.0134   -8.6442 H   0  0  0  0  0  0  0  0  0  0  0  0
   -6.4147   -9.5189   -5.3949 H   0  0  0  0  0  0  0  0  0  0  0  0
   -8.4066   -4.8605   -9.2475 H   0  0  0  0  0  0  0  0  0  0  0  0
   -9.9751   -5.4378   -8.6233 H   0  0  0  0  0  0  0  0  0  0  0  0
   -9.1168   -6.3325   -9.8530 H   0  0  0  0  0  0  0  0  0  0  0  0
   -8.3109   -3.8134   -6.9251 H   0  0  0  0  0  0  0  0  0  0  0  0
   -7.2554   -3.2357   -4.7143 H   0  0  0  0  0  0  0  0  0  0  0  0
   -6.1803   -4.9861   -3.3538 H   0  0  0  0  0  0  0  0  0  0  0  0
   -6.0943   -7.3726   -4.1478 H   0  0  0  0  0  0  0  0  0  0  0  0
   -7.2406  -12.5372   -6.2322 H   0  0  0  0  0  0  0  0  0  0  0  0
   -8.4230  -11.3484   -5.6520 H   0  0  0  0  0  0  0  0  0  0  0  0
   -9.5787  -11.2789   -7.7394 H   0  0  0  0  0  0  0  0  0  0  0  0
   -9.4964  -12.9624   -7.2235 H   0  0  0  0  0  0  0  0  0  0  0  0
  1  2  1  0
  1 21  1  0
  1 22  1  0
  1 23  1  0
  2  3  1  0
  2 24  1  0
  2 25  1  0
  3 20  1  0
  3  4  1  0
  4  5  1  0
  4 26  1  0
  4 27  1  0
  5  6  1  0
  5 28  1  0
  5 29  1  0
  6  7  1  0
  6 19  1  0
  7  8  2  3
  7 30  1  0
  8 18  1  0
  8  9  1  0
  9 10  2  0
  9 11  1  0
 11 12  1  0
 11 13  1  0
 12 31  1  0
 12 32  1  0
 12 33  1  0
 13 18  2  0
 13 14  1  0
 14 15  2  0
 14 34  1  0
 15 16  1  0
 15 35  1  0
 16 17  2  0
 16 36  1  0
 17 18  1  0
 17 37  1  0
 19 20  1  0
 19 38  1  0
 19 39  1  0
 20 40  1  0
 20 41  1  0
M  END
>  <i_m_ct_stereo_status>  (2) 
1

>  <s_m_source_file>  (2) 
/var/tmp/pbs.5076255.sched01/tmpuvpulguu/0mmv31ww_.sdf

>  <i_m_source_file_index>  (2) 
2

>  <i_lp_mmshare_version>  (2) 
48012

>  <i_f3d_flags>  (2) 
0

>  <s_epik_input>  (2) 
W0NIM11bQ0gyXU4xW0NIMl1bQ0gyXU4oW0NIMl1bQ0gyXTEpL1tDSF09QyhcQyg9TylOMltDSDNdKWMoYzIzKVtjSF1bY0hdW2NIXVtjSF0z

>  <s_epik_cmdline>  (2) 
J2VwaWtfcHl0aG9uJywgJy1waHQnLCAnMi4wJywgJy1waCcsICc3LjAnLCAnLXRuJywgJzgnLCAnLW1hJywgJzIwMCcsICctaW1hZScsICc8aW5maWxlLm1hZT4nLCAnLW9tYWUnLCAnPG91dGZpbGUubWFlPic=

>  <r_epik_Ionization_Penalty>  (2) 
0.334565

>  <r_epik_Ionization_Penalty_Charging>  (2) 
0

>  <r_epik_Ionization_Penalty_Neutral>  (2) 
0.334565

>  <r_epik_State_Penalty>  (2) 
0.329683

>  <r_epik_Charging_Adjusted_Penalty>  (2) 
0.329683

>  <i_epik_Tot_Q>  (2) 
0

>  <i_epik_Tot_abs_Q>  (2) 
0

>  <s_lp_Force_Field>  (2) 
OPLS3e

>  <r_lp_Energy>  (2) 
30.1212

>  <b_lp_Chiralities_Consistent>  (2) 
1

>  <s_lp_Variant>  (2) 
1:0-1

>  <s_i_glide_gridfile>  (2) 
pfpi4k_grid

>  <i_i_glide_lignum>  (2) 
2

>  <i_i_glide_rotatable_bonds>  (2) 
2

>  <r_i_docking_score>  (2) 
-6.19278

>  <r_i_glide_ligand_efficiency>  (2) 
-0.309639

>  <r_i_glide_ligand_efficiency_sa>  (2) 
-0.84049

>  <r_i_glide_ligand_efficiency_ln>  (2) 
-1.54985

>  <r_i_glide_gscore>  (2) 
-6.19278

>  <r_i_glide_lipo>  (2) 
-2.46575

>  <r_i_glide_hbond>  (2) 
0

>  <r_i_glide_metal>  (2) 
-0

>  <r_i_glide_rewards>  (2) 
-2.88015

>  <r_i_glide_evdw>  (2) 
-24.2722

>  <r_i_glide_ecoul>  (2) 
0.823968

>  <r_i_glide_erotb>  (2) 
0.243126

>  <r_i_glide_esite>  (2) 
0

>  <r_i_glide_emodel>  (2) 
-30.9261

>  <r_i_glide_energy>  (2) 
-23.4483

>  <r_i_glide_einternal>  (2) 
4.14381

>  <r_i_glide_intrahb_reward>  (2) 
-0

>  <i_i_glide_confnum>  (2) 
3

>  <i_i_glide_posenum>  (2) 
33

>  <r_i_glide_eff_state_penalty>  (2) 
0

>  <ligand_id>  (2) 
1

>  <original_smiles>  (2) 
CCN1CCN(C=C2C(=O)N(C)c3ccccc32)CC1

>  <smiles>  (2) 
[H]C(=C1C(=O)N(C([H])([H])[H])c2c([H])c([H])c([H])c([H])c21)N1C([H])([H])C([H])([H])N(C([H])([H])C([H])([H])[H])C([H])([H])C1([H])[H]

$$$$
1:0:2
     RDKit          3D

 41 43  0  0  1  0  0  0  0  0999 V2000
  -12.3049  -13.2737   -9.7698 C   0  0  0  0  0  0  0  0  0  0  0  0
  -11.7496  -11.8497   -9.8928 C   0  0  0  0  0  0  0  0  0  0  0  0
  -10.3953  -11.7734   -9.3408 N   0  0  0  0  0  0  0  0  0  0  0  0
   -9.7567  -10.5639   -9.8571 C   0  0  0  0  0  0  0  0  0  0  0  0
   -8.3272  -10.4109   -9.2708 C   0  0  0  0  0  0  0  0  0  0  0  0
   -8.3470  -10.3739   -7.8107 N   0  0  0  0  0  0  0  0  0  0  0  0
   -7.8009   -9.3762   -7.0066 C   0  0  0  0  0  0  0  0  0  0  0  0
   -7.9225   -8.0319   -7.0952 C   0  0  0  0  0  0  0  0  0  0  0  0
   -8.7628   -7.2971   -8.0494 C   0  0  0  0  0  0  0  0  0  0  0  0
   -9.4830   -7.7243   -8.9420 O   0  0  0  0  0  0  0  0  0  0  0  0
   -8.6252   -5.9853   -7.7675 N   0  0  0  0  0  0  0  0  0  0  0  0
   -9.2797   -4.9147   -8.4979 C   0  0  0  0  0  0  0  0  0  0  0  0
   -7.7865   -5.7838   -6.6790 C   0  0  0  0  0  0  0  0  0  0  0  0
   -7.4063   -4.5816   -6.0608 C   0  0  0  0  0  0  0  0  0  0  0  0
   -6.5183   -4.6565   -4.9620 C   0  0  0  0  0  0  0  0  0  0  0  0
   -6.0532   -5.9136   -4.5071 C   0  0  0  0  0  0  0  0  0  0  0  0
   -6.4401   -7.1078   -5.1478 C   0  0  0  0  0  0  0  0  0  0  0  0
   -7.3177   -7.0149   -6.2395 C   0  0  0  0  0  0  0  0  0  0  0  0
   -9.0567  -11.5210   -7.2701 C   0  0  0  0  0  0  0  0  0  0  0  0
  -10.4698  -11.6338   -7.8790 C   0  0  0  0  0  0  0  0  0  0  0  0
  -13.3372  -13.3084  -10.1209 H   0  0  0  0  0  0  0  0  0  0  0  0
  -12.2961  -13.6497   -8.7459 H   0  0  0  0  0  0  0  0  0  0  0  0
  -11.7145  -13.9576  -10.3812 H   0  0  0  0  0  0  0  0  0  0  0  0
  -11.7284  -11.5968  -10.9518 H   0  0  0  0  0  0  0  0  0  0  0  0
  -12.4041  -11.1132   -9.4220 H   0  0  0  0  0  0  0  0  0  0  0  0
   -9.6917  -10.5969  -10.9475 H   0  0  0  0  0  0  0  0  0  0  0  0
  -10.4158   -9.7344   -9.6093 H   0  0  0  0  0  0  0  0  0  0  0  0
   -7.6929  -11.2309   -9.6018 H   0  0  0  0  0  0  0  0  0  0  0  0
   -7.8558   -9.5030   -9.6365 H   0  0  0  0  0  0  0  0  0  0  0  0
   -7.1809   -9.7926   -6.2316 H   0  0  0  0  0  0  0  0  0  0  0  0
   -8.5509   -4.1545   -8.7652 H   0  0  0  0  0  0  0  0  0  0  0  0
  -10.0880   -4.4855   -7.9096 H   0  0  0  0  0  0  0  0  0  0  0  0
   -9.7190   -5.2838   -9.4235 H   0  0  0  0  0  0  0  0  0  0  0  0
   -7.7939   -3.6414   -6.4334 H   0  0  0  0  0  0  0  0  0  0  0  0
   -6.1990   -3.7405   -4.4748 H   0  0  0  0  0  0  0  0  0  0  0  0
   -5.3939   -5.9629   -3.6550 H   0  0  0  0  0  0  0  0  0  0  0  0
   -6.0781   -8.0663   -4.7886 H   0  0  0  0  0  0  0  0  0  0  0  0
   -8.4916  -12.4366   -7.4587 H   0  0  0  0  0  0  0  0  0  0  0  0
   -9.1517  -11.4019   -6.1891 H   0  0  0  0  0  0  0  0  0  0  0  0
  -11.0665  -10.7588   -7.6082 H   0  0  0  0  0  0  0  0  0  0  0  0
  -10.9640  -12.5017   -7.4428 H   0  0  0  0  0  0  0  0  0  0  0  0
  1  2  1  0
  1 21  1  0
  1 22  1  0
  1 23  1  0
  2  3  1  0
  2 24  1  0
  2 25  1  0
  3 20  1  0
  3  4  1  0
  4  5  1  0
  4 26  1  0
  4 27  1  0
  5  6  1  0
  5 28  1  0
  5 29  1  0
  6  7  1  0
  6 19  1  0
  7  8  2  3
  7 30  1  0
  8 18  1  0
  8  9  1  0
  9 10  2  0
  9 11  1  0
 11 12  1  0
 11 13  1  0
 12 31  1  0
 12 32  1  0
 12 33  1  0
 13 18  2  0
 13 14  1  0
 14 15  2  0
 14 34  1  0
 15 16  1  0
 15 35  1  0
 16 17  2  0
 16 36  1  0
 17 18  1  0
 17 37  1  0
 19 20  1  0
 19 38  1  0
 19 39  1  0
 20 40  1  0
 20 41  1  0
M  END
>  <i_m_ct_stereo_status>  (3) 
1

>  <s_m_source_file>  (3) 
/var/tmp/pbs.5076255.sched01/tmpuvpulguu/0mmv31ww_.sdf

>  <i_m_source_file_index>  (3) 
2

>  <i_lp_mmshare_version>  (3) 
48012

>  <i_f3d_flags>  (3) 
0

>  <s_epik_input>  (3) 
W0NIM11bQ0gyXU4xW0NIMl1bQ0gyXU4oW0NIMl1bQ0gyXTEpL1tDSF09QyhcQyg9TylOMltDSDNdKWMoYzIzKVtjSF1bY0hdW2NIXVtjSF0z

>  <s_epik_cmdline>  (3) 
J2VwaWtfcHl0aG9uJywgJy1waHQnLCAnMi4wJywgJy1waCcsICc3LjAnLCAnLXRuJywgJzgnLCAnLW1hJywgJzIwMCcsICctaW1hZScsICc8aW5maWxlLm1hZT4nLCAnLW9tYWUnLCAnPG91dGZpbGUubWFlPic=

>  <r_epik_Ionization_Penalty>  (3) 
0.334565

>  <r_epik_Ionization_Penalty_Charging>  (3) 
0

>  <r_epik_Ionization_Penalty_Neutral>  (3) 
0.334565

>  <r_epik_State_Penalty>  (3) 
0.329683

>  <r_epik_Charging_Adjusted_Penalty>  (3) 
0.329683

>  <i_epik_Tot_Q>  (3) 
0

>  <i_epik_Tot_abs_Q>  (3) 
0

>  <s_lp_Force_Field>  (3) 
OPLS3e

>  <r_lp_Energy>  (3) 
30.1212

>  <b_lp_Chiralities_Consistent>  (3) 
1

>  <s_lp_Variant>  (3) 
1:0-1

>  <s_i_glide_gridfile>  (3) 
pfpi4k_grid

>  <i_i_glide_lignum>  (3) 
2

>  <i_i_glide_rotatable_bonds>  (3) 
2

>  <r_i_docking_score>  (3) 
-4.97349

>  <r_i_glide_ligand_efficiency>  (3) 
-0.248675

>  <r_i_glide_ligand_efficiency_sa>  (3) 
-0.675007

>  <r_i_glide_ligand_efficiency_ln>  (3) 
-1.2447

>  <r_i_glide_gscore>  (3) 
-4.97349

>  <r_i_glide_lipo>  (3) 
-2.08432

>  <r_i_glide_hbond>  (3) 
0

>  <r_i_glide_metal>  (3) 
-0

>  <r_i_glide_rewards>  (3) 
-1.99242

>  <r_i_glide_evdw>  (3) 
-23.6206

>  <r_i_glide_ecoul>  (3) 
0.274322

>  <r_i_glide_erotb>  (3) 
0.243126

>  <r_i_glide_esite>  (3) 
0

>  <r_i_glide_emodel>  (3) 
-30.3158

>  <r_i_glide_energy>  (3) 
-23.3463

>  <r_i_glide_einternal>  (3) 
1.13182

>  <r_i_glide_intrahb_reward>  (3) 
-0

>  <i_i_glide_confnum>  (3) 
3

>  <i_i_glide_posenum>  (3) 
21

>  <r_i_glide_eff_state_penalty>  (3) 
0

>  <ligand_id>  (3) 
1

>  <original_smiles>  (3) 
CCN1CCN(C=C2C(=O)N(C)c3ccccc32)CC1

>  <smiles>  (3) 
[H]C(=C1C(=O)N(C([H])([H])[H])c2c([H])c([H])c([H])c([H])c21)N1C([H])([H])C([H])([H])N(C([H])([H])C([H])([H])[H])C([H])([H])C1([H])[H]

$$$$
1:1:0
     RDKit          3D

 41 43  0  0  1  0  0  0  0  0999 V2000
    3.8096    1.0842   -4.7194 C   0  0  0  0  0  0  0  0  0  0  0  0
    3.1410   -0.2413   -4.3170 C   0  0  0  0  0  0  0  0  0  0  0  0
    4.1279   -1.2118   -3.8669 N   0  0  0  0  0  0  0  0  0  0  0  0
    4.4412   -0.9874   -2.4685 C   0  0  0  0  0  0  0  0  0  0  0  0
    5.5447   -2.0154   -2.0205 C   0  0  0  0  0  0  0  0  0  0  0  0
    5.0170   -3.3535   -2.1298 N   0  0  0  0  0  0  0  0  0  0  0  0
    4.8664   -4.2890   -1.1071 C   0  0  0  0  0  0  0  0  0  0  0  0
    4.6518   -4.0994    0.2202 C   0  0  0  0  0  0  0  0  0  0  0  0
    4.6078   -5.2366    1.1496 C   0  0  0  0  0  0  0  0  0  0  0  0
    4.7182   -6.4298    0.8829 O   0  0  0  0  0  0  0  0  0  0  0  0
    4.4039   -4.7196    2.3913 N   0  0  0  0  0  0  0  0  0  0  0  0
    4.2533   -5.4893    3.6138 C   0  0  0  0  0  0  0  0  0  0  0  0
    4.3126   -3.3110    2.3563 C   0  0  0  0  0  0  0  0  0  0  0  0
    4.0998   -2.3857    3.4253 C   0  0  0  0  0  0  0  0  0  0  0  0
    4.0694   -0.9954    3.1241 C   0  0  0  0  0  0  0  0  0  0  0  0
    4.1917   -0.5561    1.7926 C   0  0  0  0  0  0  0  0  0  0  0  0
    4.3071   -1.4954    0.7839 C   0  0  0  0  0  0  0  0  0  0  0  0
    4.4323   -2.8811    1.0451 C   0  0  0  0  0  0  0  0  0  0  0  0
    4.6063   -3.6131   -3.4898 C   0  0  0  0  0  0  0  0  0  0  0  0
    3.5686   -2.5636   -3.9609 C   0  0  0  0  0  0  0  0  0  0  0  0
    3.0721    1.7397   -5.1885 H   0  0  0  0  0  0  0  0  0  0  0  0
    4.6143    0.9373   -5.4326 H   0  0  0  0  0  0  0  0  0  0  0  0
    4.2151    1.6175   -3.8611 H   0  0  0  0  0  0  0  0  0  0  0  0
    2.3640   -0.0618   -3.5658 H   0  0  0  0  0  0  0  0  0  0  0  0
    2.6305   -0.6423   -5.1962 H   0  0  0  0  0  0  0  0  0  0  0  0
    4.7650    0.0340   -2.2782 H   0  0  0  0  0  0  0  0  0  0  0  0
    3.4736   -1.0789   -1.9326 H   0  0  0  0  0  0  0  0  0  0  0  0
    6.4562   -1.9021   -2.5403 H   0  0  0  0  0  0  0  0  0  0  0  0
    5.9084   -1.8959   -0.9781 H   0  0  0  0  0  0  0  0  0  0  0  0
    5.0057   -5.3091   -1.4791 H   0  0  0  0  0  0  0  0  0  0  0  0
    4.8499   -5.0420    4.4084 H   0  0  0  0  0  0  0  0  0  0  0  0
    4.5957   -6.5182    3.4740 H   0  0  0  0  0  0  0  0  0  0  0  0
    3.2051   -5.5143    3.9173 H   0  0  0  0  0  0  0  0  0  0  0  0
    3.9491   -2.7198    4.4390 H   0  0  0  0  0  0  0  0  0  0  0  0
    3.9054   -0.2261    3.8810 H   0  0  0  0  0  0  0  0  0  0  0  0
    4.1853    0.4768    1.4920 H   0  0  0  0  0  0  0  0  0  0  0  0
    4.3092   -1.0145   -0.1412 H   0  0  0  0  0  0  0  0  0  0  0  0
    5.5047   -3.5988   -4.1103 H   0  0  0  0  0  0  0  0  0  0  0  0
    4.1972   -4.6289   -3.5776 H   0  0  0  0  0  0  0  0  0  0  0  0
    2.6346   -2.6671   -3.4002 H   0  0  0  0  0  0  0  0  0  0  0  0
    3.3370   -2.7741   -5.0039 H   0  0  0  0  0  0  0  0  0  0  0  0
  1  2  1  0
  1 21  1  0
  1 22  1  0
  1 23  1  0
  2  3  1  0
  2 24  1  0
  2 25  1  0
  3 20  1  0
  3  4  1  0
  4  5  1  0
  4 26  1  0
  4 27  1  0
  5  6  1  0
  5 28  1  0
  5 29  1  0
  6  7  1  0
  6 19  1  0
  7  8  2  3
  7 30  1  0
  8 18  1  0
  8  9  1  0
  9 10  2  0
  9 11  1  0
 11 12  1  0
 11 13  1  0
 12 31  1  0
 12 32  1  0
 12 33  1  0
 13 18  2  0
 13 14  1  0
 14 15  2  0
 14 34  1  0
 15 16  1  0
 15 35  1  0
 16 17  2  0
 16 36  1  0
 17 18  1  0
 17 37  1  0
 19 20  1  0
 19 38  1  0
 19 39  1  0
 20 40  1  0
 20 41  1  0
M  END
>  <i_m_ct_stereo_status>  (4) 
1

>  <s_m_source_file>  (4) 
/var/tmp/pbs.5076255.sched01/tmpuvpulguu/0mmv31ww_.sdf

>  <i_m_source_file_index>  (4) 
3

>  <i_lp_mmshare_version>  (4) 
48012

>  <i_f3d_flags>  (4) 
0

>  <s_epik_input>  (4) 
W0NIM11bQ0gyXU4xW0NIMl1bQ0gyXU4oW0NIMl1bQ0gyXTEpL1tDSF09QyhcQyg9TylOMltDSDNdKWMoYzIzKVtjSF1bY0hdW2NIXVtjSF0z

>  <s_epik_cmdline>  (4) 
J2VwaWtfcHl0aG9uJywgJy1waHQnLCAnMi4wJywgJy1waCcsICc3LjAnLCAnLXRuJywgJzgnLCAnLW1hJywgJzIwMCcsICctaW1hZScsICc8aW5maWxlLm1hZT4nLCAnLW9tYWUnLCAnPG91dGZpbGUubWFlPic=

>  <r_epik_Ionization_Penalty>  (4) 
0.334565

>  <r_epik_Ionization_Penalty_Charging>  (4) 
0

>  <r_epik_Ionization_Penalty_Neutral>  (4) 
0.334565

>  <r_epik_State_Penalty>  (4) 
0.329683

>  <r_epik_Charging_Adjusted_Penalty>  (4) 
0.329683

>  <i_epik_Tot_Q>  (4) 
0

>  <i_epik_Tot_abs_Q>  (4) 
0

>  <s_lp_Force_Field>  (4) 
OPLS3e

>  <r_lp_Energy>  (4) 
28.8353

>  <b_lp_Chiralities_Consistent>  (4) 
1

>  <s_lp_Variant>  (4) 
1:0-2

>  <s_i_glide_gridfile>  (4) 
pfpi4k_grid

>  <i_i_glide_lignum>  (4) 
3

>  <i_i_glide_rotatable_bonds>  (4) 
2

>  <r_i_docking_score>  (4) 
-3.58193

>  <r_i_glide_ligand_efficiency>  (4) 
-0.179097

>  <r_i_glide_ligand_efficiency_sa>  (4) 
-0.486143

>  <r_i_glide_ligand_efficiency_ln>  (4) 
-0.896439

>  <r_i_glide_gscore>  (4) 
-3.58193

>  <r_i_glide_lipo>  (4) 
-0.594643

>  <r_i_glide_hbond>  (4) 
0

>  <r_i_glide_metal>  (4) 
-0

>  <r_i_glide_rewards>  (4) 
-1.79905

>  <r_i_glide_evdw>  (4) 
-24.6452

>  <r_i_glide_ecoul>  (4) 
-1.3274

>  <r_i_glide_erotb>  (4) 
0.243126

>  <r_i_glide_esite>  (4) 
0

>  <r_i_glide_emodel>  (4) 
-29.3171

>  <r_i_glide_energy>  (4) 
-25.9726

>  <r_i_glide_einternal>  (4) 
0.944686

>  <r_i_glide_intrahb_reward>  (4) 
-0

>  <i_i_glide_confnum>  (4) 
2

>  <i_i_glide_posenum>  (4) 
10

>  <r_i_glide_eff_state_penalty>  (4) 
0

>  <ligand_id>  (4) 
1

>  <original_smiles>  (4) 
CCN1CCN(C=C2C(=O)N(C)c3ccccc32)CC1

>  <smiles>  (4) 
[H]C(=C1C(=O)N(C([H])([H])[H])c2c([H])c([H])c([H])c([H])c21)N1C([H])([H])C([H])([H])N(C([H])([H])C([H])([H])[H])C([H])([H])C1([H])[H]

$$$$
1:1:1
     RDKit          3D

 41 43  0  0  1  0  0  0  0  0999 V2000
    4.7796   -2.5163   -2.9737 C   0  0  0  0  0  0  0  0  0  0  0  0
    4.2089   -3.6033   -2.0622 C   0  0  0  0  0  0  0  0  0  0  0  0
    4.3231   -3.1798   -0.6731 N   0  0  0  0  0  0  0  0  0  0  0  0
    3.2146   -2.2778   -0.3259 C   0  0  0  0  0  0  0  0  0  0  0  0
    3.2731   -1.8901    1.1675 C   0  0  0  0  0  0  0  0  0  0  0  0
    3.2182   -3.0749    2.0206 N   0  0  0  0  0  0  0  0  0  0  0  0
    2.2602   -3.2799    3.0226 C   0  0  0  0  0  0  0  0  0  0  0  0
    1.6548   -4.4017    3.4256 C   0  0  0  0  0  0  0  0  0  0  0  0
    0.7194   -4.4222    4.5648 C   0  0  0  0  0  0  0  0  0  0  0  0
    0.3557   -3.4416    5.2540 O   0  0  0  0  0  0  0  0  0  0  0  0
    0.3022   -5.6950    4.7179 N   0  0  0  0  0  0  0  0  0  0  0  0
   -0.6697   -6.1502    5.7036 C   0  0  0  0  0  0  0  0  0  0  0  0
    0.8816   -6.5623    3.7520 C   0  0  0  0  0  0  0  0  0  0  0  0
    0.6976   -7.9649    3.5857 C   0  0  0  0  0  0  0  0  0  0  0  0
    1.4275   -8.6070    2.5293 C   0  0  0  0  0  0  0  0  0  0  0  0
    2.2712   -7.8307    1.7243 C   0  0  0  0  0  0  0  0  0  0  0  0
    2.4081   -6.4540    1.8973 C   0  0  0  0  0  0  0  0  0  0  0  0
    1.7199   -5.8110    2.9334 C   0  0  0  0  0  0  0  0  0  0  0  0
    4.2787   -4.0038    1.6640 C   0  0  0  0  0  0  0  0  0  0  0  0
    4.1584   -4.3684    0.1527 C   0  0  0  0  0  0  0  0  0  0  0  0
    4.8262   -2.8761   -3.9999 H   0  0  0  0  0  0  0  0  0  0  0  0
    5.7922   -2.2550   -2.6516 H   0  0  0  0  0  0  0  0  0  0  0  0
    4.1637   -1.6149   -2.9532 H   0  0  0  0  0  0  0  0  0  0  0  0
    3.1817   -3.8599   -2.3381 H   0  0  0  0  0  0  0  0  0  0  0  0
    4.7841   -4.5160   -2.2256 H   0  0  0  0  0  0  0  0  0  0  0  0
    3.2760   -1.3720   -0.9244 H   0  0  0  0  0  0  0  0  0  0  0  0
    2.2462   -2.7354   -0.5459 H   0  0  0  0  0  0  0  0  0  0  0  0
    4.2038   -1.3588    1.3802 H   0  0  0  0  0  0  0  0  0  0  0  0
    2.4462   -1.2215    1.4114 H   0  0  0  0  0  0  0  0  0  0  0  0
    2.0633   -2.3335    3.5401 H   0  0  0  0  0  0  0  0  0  0  0  0
   -1.3989   -6.8013    5.2209 H   0  0  0  0  0  0  0  0  0  0  0  0
   -1.2033   -5.3135    6.1618 H   0  0  0  0  0  0  0  0  0  0  0  0
   -0.1455   -6.7057    6.4806 H   0  0  0  0  0  0  0  0  0  0  0  0
    0.0370   -8.5525    4.2162 H   0  0  0  0  0  0  0  0  0  0  0  0
    1.3619   -9.6790    2.3386 H   0  0  0  0  0  0  0  0  0  0  0  0
    2.8756   -8.2788    0.9605 H   0  0  0  0  0  0  0  0  0  0  0  0
    3.0819   -6.0148    1.2018 H   0  0  0  0  0  0  0  0  0  0  0  0
    5.2678   -3.5763    1.8692 H   0  0  0  0  0  0  0  0  0  0  0  0
    4.1994   -4.8693    2.3233 H   0  0  0  0  0  0  0  0  0  0  0  0
    3.1751   -4.7450   -0.1435 H   0  0  0  0  0  0  0  0  0  0  0  0
    4.8706   -5.1519   -0.1071 H   0  0  0  0  0  0  0  0  0  0  0  0
  1  2  1  0
  1 21  1  0
  1 22  1  0
  1 23  1  0
  2  3  1  0
  2 24  1  0
  2 25  1  0
  3 20  1  0
  3  4  1  0
  4  5  1  0
  4 26  1  0
  4 27  1  0
  5  6  1  0
  5 28  1  0
  5 29  1  0
  6  7  1  0
  6 19  1  0
  7  8  2  3
  7 30  1  0
  8 18  1  0
  8  9  1  0
  9 10  2  0
  9 11  1  0
 11 12  1  0
 11 13  1  0
 12 31  1  0
 12 32  1  0
 12 33  1  0
 13 18  2  0
 13 14  1  0
 14 15  2  0
 14 34  1  0
 15 16  1  0
 15 35  1  0
 16 17  2  0
 16 36  1  0
 17 18  1  0
 17 37  1  0
 19 20  1  0
 19 38  1  0
 19 39  1  0
 20 40  1  0
 20 41  1  0
M  END
>  <i_m_ct_stereo_status>  (5) 
1

>  <s_m_source_file>  (5) 
/var/tmp/pbs.5076255.sched01/tmpuvpulguu/0mmv31ww_.sdf

>  <i_m_source_file_index>  (5) 
3

>  <i_lp_mmshare_version>  (5) 
48012

>  <i_f3d_flags>  (5) 
0

>  <s_epik_input>  (5) 
W0NIM11bQ0gyXU4xW0NIMl1bQ0gyXU4oW0NIMl1bQ0gyXTEpL1tDSF09QyhcQyg9TylOMltDSDNdKWMoYzIzKVtjSF1bY0hdW2NIXVtjSF0z

>  <s_epik_cmdline>  (5) 
J2VwaWtfcHl0aG9uJywgJy1waHQnLCAnMi4wJywgJy1waCcsICc3LjAnLCAnLXRuJywgJzgnLCAnLW1hJywgJzIwMCcsICctaW1hZScsICc8aW5maWxlLm1hZT4nLCAnLW9tYWUnLCAnPG91dGZpbGUubWFlPic=

>  <r_epik_Ionization_Penalty>  (5) 
0.334565

>  <r_epik_Ionization_Penalty_Charging>  (5) 
0

>  <r_epik_Ionization_Penalty_Neutral>  (5) 
0.334565

>  <r_epik_State_Penalty>  (5) 
0.329683

>  <r_epik_Charging_Adjusted_Penalty>  (5) 
0.329683

>  <i_epik_Tot_Q>  (5) 
0

>  <i_epik_Tot_abs_Q>  (5) 
0

>  <s_lp_Force_Field>  (5) 
OPLS3e

>  <r_lp_Energy>  (5) 
28.8353

>  <b_lp_Chiralities_Consistent>  (5) 
1

>  <s_lp_Variant>  (5) 
1:0-2

>  <s_i_glide_gridfile>  (5) 
pfpi4k_grid

>  <i_i_glide_lignum>  (5) 
3

>  <i_i_glide_rotatable_bonds>  (5) 
2

>  <r_i_docking_score>  (5) 
-2.67062

>  <r_i_glide_ligand_efficiency>  (5) 
-0.133531

>  <r_i_glide_ligand_efficiency_sa>  (5) 
-0.36246

>  <r_i_glide_ligand_efficiency_ln>  (5) 
-0.668369

>  <r_i_glide_gscore>  (5) 
-2.67062

>  <r_i_glide_lipo>  (5) 
-0.129288

>  <r_i_glide_hbond>  (5) 
0

>  <r_i_glide_metal>  (5) 
-0

>  <r_i_glide_rewards>  (5) 
-1.55893

>  <r_i_glide_evdw>  (5) 
-18.9473

>  <r_i_glide_ecoul>  (5) 
-1.7269

>  <r_i_glide_erotb>  (5) 
0.243126

>  <r_i_glide_esite>  (5) 
-0.019136

>  <r_i_glide_emodel>  (5) 
-22.763

>  <r_i_glide_energy>  (5) 
-20.6742

>  <r_i_glide_einternal>  (5) 
0.711273

>  <r_i_glide_intrahb_reward>  (5) 
-0

>  <i_i_glide_confnum>  (5) 
3

>  <i_i_glide_posenum>  (5) 
15

>  <r_i_glide_eff_state_penalty>  (5) 
0

>  <ligand_id>  (5) 
1

>  <original_smiles>  (5) 
CCN1CCN(C=C2C(=O)N(C)c3ccccc32)CC1

>  <smiles>  (5) 
[H]C(=C1C(=O)N(C([H])([H])[H])c2c([H])c([H])c([H])c([H])c21)N1C([H])([H])C([H])([H])N(C([H])([H])C([H])([H])[H])C([H])([H])C1([H])[H]

$$$$
1:1:2
     RDKit          3D

 41 43  0  0  1  0  0  0  0  0999 V2000
   -1.6972    4.8388   11.7873 C   0  0  0  0  0  0  0  0  0  0  0  0
   -2.3774    3.6920   11.0220 C   0  0  0  0  0  0  0  0  0  0  0  0
   -2.2460    3.8769    9.5771 N   0  0  0  0  0  0  0  0  0  0  0  0
   -0.8721    3.5847    9.1767 C   0  0  0  0  0  0  0  0  0  0  0  0
   -0.7415    3.8046    7.7043 C   0  0  0  0  0  0  0  0  0  0  0  0
   -1.6336    2.9733    6.9094 N   0  0  0  0  0  0  0  0  0  0  0  0
   -1.2485    2.1730    5.8487 C   0  0  0  0  0  0  0  0  0  0  0  0
   -0.2483    2.3517    4.9494 C   0  0  0  0  0  0  0  0  0  0  0  0
    0.0396    1.3396    3.9403 C   0  0  0  0  0  0  0  0  0  0  0  0
   -0.5518    0.2588    3.7722 O   0  0  0  0  0  0  0  0  0  0  0  0
    1.0977    1.7724    3.2300 N   0  0  0  0  0  0  0  0  0  0  0  0
    1.7045    1.0671    2.0993 C   0  0  0  0  0  0  0  0  0  0  0  0
    1.5551    3.0411    3.6943 C   0  0  0  0  0  0  0  0  0  0  0  0
    2.6350    3.8243    3.2060 C   0  0  0  0  0  0  0  0  0  0  0  0
    2.8762    5.0678    3.8643 C   0  0  0  0  0  0  0  0  0  0  0  0
    2.0296    5.4719    4.9225 C   0  0  0  0  0  0  0  0  0  0  0  0
    0.9316    4.7181    5.3583 C   0  0  0  0  0  0  0  0  0  0  0  0
    0.7226    3.4470    4.7478 C   0  0  0  0  0  0  0  0  0  0  0  0
   -2.9977    3.1325    7.3488 C   0  0  0  0  0  0  0  0  0  0  0  0
   -3.1274    2.9317    8.8790 C   0  0  0  0  0  0  0  0  0  0  0  0
   -1.9121    4.7349   12.8521 H   0  0  0  0  0  0  0  0  0  0  0  0
   -2.0649    5.8135   11.4579 H   0  0  0  0  0  0  0  0  0  0  0  0
   -0.6095    4.8383   11.6830 H   0  0  0  0  0  0  0  0  0  0  0  0
   -1.9470    2.7300   11.2937 H   0  0  0  0  0  0  0  0  0  0  0  0
   -3.4340    3.6693   11.2805 H   0  0  0  0  0  0  0  0  0  0  0  0
   -0.1831    4.2837    9.6542 H   0  0  0  0  0  0  0  0  0  0  0  0
   -0.5614    2.5722    9.4686 H   0  0  0  0  0  0  0  0  0  0  0  0
   -0.9611    4.8648    7.5010 H   0  0  0  0  0  0  0  0  0  0  0  0
    0.2957    3.6236    7.4009 H   0  0  0  0  0  0  0  0  0  0  0  0
   -1.8491    1.2730    5.7959 H   0  0  0  0  0  0  0  0  0  0  0  0
    1.8737    1.7768    1.2971 H   0  0  0  0  0  0  0  0  0  0  0  0
    1.0732    0.2570    1.6998 H   0  0  0  0  0  0  0  0  0  0  0  0
    2.6687    0.6412    2.3880 H   0  0  0  0  0  0  0  0  0  0  0  0
    3.2405    3.5037    2.3608 H   0  0  0  0  0  0  0  0  0  0  0  0
    3.6900    5.7022    3.5277 H   0  0  0  0  0  0  0  0  0  0  0  0
    2.2287    6.4124    5.4125 H   0  0  0  0  0  0  0  0  0  0  0  0
    0.2904    5.1208    6.1162 H   0  0  0  0  0  0  0  0  0  0  0  0
   -3.3503    4.1287    7.0660 H   0  0  0  0  0  0  0  0  0  0  0  0
   -3.6430    2.4108    6.8297 H   0  0  0  0  0  0  0  0  0  0  0  0
   -2.8275    1.9120    9.1292 H   0  0  0  0  0  0  0  0  0  0  0  0
   -4.1631    3.0793    9.1861 H   0  0  0  0  0  0  0  0  0  0  0  0
  1  2  1  0
  1 21  1  0
  1 22  1  0
  1 23  1  0
  2  3  1  0
  2 24  1  0
  2 25  1  0
  3 20  1  0
  3  4  1  0
  4  5  1  0
  4 26  1  0
  4 27  1  0
  5  6  1  0
  5 28  1  0
  5 29  1  0
  6  7  1  0
  6 19  1  0
  7  8  2  3
  7 30  1  0
  8 18  1  0
  8  9  1  0
  9 10  2  0
  9 11  1  0
 11 12  1  0
 11 13  1  0
 12 31  1  0
 12 32  1  0
 12 33  1  0
 13 18  2  0
 13 14  1  0
 14 15  2  0
 14 34  1  0
 15 16  1  0
 15 35  1  0
 16 17  2  0
 16 36  1  0
 17 18  1  0
 17 37  1  0
 19 20  1  0
 19 38  1  0
 19 39  1  0
 20 40  1  0
 20 41  1  0
M  END
>  <i_m_ct_stereo_status>  (6) 
1

>  <s_m_source_file>  (6) 
/var/tmp/pbs.5076255.sched01/tmpuvpulguu/0mmv31ww_.sdf

>  <i_m_source_file_index>  (6) 
3

>  <i_lp_mmshare_version>  (6) 
48012

>  <i_f3d_flags>  (6) 
0

>  <s_epik_input>  (6) 
W0NIM11bQ0gyXU4xW0NIMl1bQ0gyXU4oW0NIMl1bQ0gyXTEpL1tDSF09QyhcQyg9TylOMltDSDNdKWMoYzIzKVtjSF1bY0hdW2NIXVtjSF0z

>  <s_epik_cmdline>  (6) 
J2VwaWtfcHl0aG9uJywgJy1waHQnLCAnMi4wJywgJy1waCcsICc3LjAnLCAnLXRuJywgJzgnLCAnLW1hJywgJzIwMCcsICctaW1hZScsICc8aW5maWxlLm1hZT4nLCAnLW9tYWUnLCAnPG91dGZpbGUubWFlPic=

>  <r_epik_Ionization_Penalty>  (6) 
0.334565

>  <r_epik_Ionization_Penalty_Charging>  (6) 
0

>  <r_epik_Ionization_Penalty_Neutral>  (6) 
0.334565

>  <r_epik_State_Penalty>  (6) 
0.329683

>  <r_epik_Charging_Adjusted_Penalty>  (6) 
0.329683

>  <i_epik_Tot_Q>  (6) 
0

>  <i_epik_Tot_abs_Q>  (6) 
0

>  <s_lp_Force_Field>  (6) 
OPLS3e

>  <r_lp_Energy>  (6) 
28.8353

>  <b_lp_Chiralities_Consistent>  (6) 
1

>  <s_lp_Variant>  (6) 
1:0-2

>  <s_i_glide_gridfile>  (6) 
pfpi4k_grid

>  <i_i_glide_lignum>  (6) 
3

>  <i_i_glide_rotatable_bonds>  (6) 
2

>  <r_i_docking_score>  (6) 
-2.55119

>  <r_i_glide_ligand_efficiency>  (6) 
-0.127559

>  <r_i_glide_ligand_efficiency_sa>  (6) 
-0.346249

>  <r_i_glide_ligand_efficiency_ln>  (6) 
-0.638478

>  <r_i_glide_gscore>  (6) 
-2.55119

>  <r_i_glide_lipo>  (6) 
-0.178015

>  <r_i_glide_hbond>  (6) 
0

>  <r_i_glide_metal>  (6) 
-0

>  <r_i_glide_rewards>  (6) 
-1.61523

>  <r_i_glide_evdw>  (6) 
-19.1529

>  <r_i_glide_ecoul>  (6) 
0.0592522

>  <r_i_glide_erotb>  (6) 
0.243126

>  <r_i_glide_esite>  (6) 
-0.0523129

>  <r_i_glide_emodel>  (6) 
-21.995

>  <r_i_glide_energy>  (6) 
-19.0936

>  <r_i_glide_einternal>  (6) 
0.0370714

>  <r_i_glide_intrahb_reward>  (6) 
-0

>  <i_i_glide_confnum>  (6) 
2

>  <i_i_glide_posenum>  (6) 
32

>  <r_i_glide_eff_state_penalty>  (6) 
0

>  <ligand_id>  (6) 
1

>  <original_smiles>  (6) 
CCN1CCN(C=C2C(=O)N(C)c3ccccc32)CC1

>  <smiles>  (6) 
[H]C(=C1C(=O)N(C([H])([H])[H])c2c([H])c([H])c([H])c([H])c21)N1C([H])([H])C([H])([H])N(C([H])([H])C([H])([H])[H])C([H])([H])C1([H])[H]

$$$$
1:2:0
     RDKit          3D

 42 44  0  0  1  0  0  0  0  0999 V2000
    2.4648  -11.8919    3.9551 C   0  0  0  0  0  0  0  0  0  0  0  0
    0.9301  -11.8863    4.2735 C   0  0  0  0  0  0  0  0  0  0  0  0
    0.2498  -10.5599    4.1399 N   0  0  0  0  0  0  0  0  0  0  0  0
    0.3513   -9.9862    2.7697 C   0  0  0  0  0  0  0  0  0  0  0  0
   -0.3254   -8.6015    2.6200 C   0  0  0  0  0  0  0  0  0  0  0  0
    0.1031   -7.6856    3.6796 N   0  0  0  0  0  0  0  0  0  0  0  0
    0.6767   -6.4241    3.4698 C   0  0  0  0  0  0  0  0  0  0  0  0
    1.7232   -6.0501    2.6697 C   0  0  0  0  0  0  0  0  0  0  0  0
    2.5771   -6.9383    1.8589 C   0  0  0  0  0  0  0  0  0  0  0  0
    2.5505   -8.1514    1.7406 O   0  0  0  0  0  0  0  0  0  0  0  0
    3.4710   -6.1645    1.2138 N   0  0  0  0  0  0  0  0  0  0  0  0
    4.5082   -6.6718    0.3169 C   0  0  0  0  0  0  0  0  0  0  0  0
    3.2900   -4.8207    1.5347 C   0  0  0  0  0  0  0  0  0  0  0  0
    4.0040   -3.7099    1.0695 C   0  0  0  0  0  0  0  0  0  0  0  0
    3.6180   -2.4373    1.5507 C   0  0  0  0  0  0  0  0  0  0  0  0
    2.5318   -2.3065    2.4665 C   0  0  0  0  0  0  0  0  0  0  0  0
    1.8301   -3.4509    2.9231 C   0  0  0  0  0  0  0  0  0  0  0  0
    2.2411   -4.7028    2.4392 C   0  0  0  0  0  0  0  0  0  0  0  0
   -0.0957   -8.2290    5.0241 C   0  0  0  0  0  0  0  0  0  0  0  0
    0.6442   -9.5755    5.1871 C   0  0  0  0  0  0  0  0  0  0  0  0
    2.9355  -12.8413    4.2375 H   0  0  0  0  0  0  0  0  0  0  0  0
    3.0072  -11.1189    4.5053 H   0  0  0  0  0  0  0  0  0  0  0  0
    2.6616  -11.7545    2.8862 H   0  0  0  0  0  0  0  0  0  0  0  0
    0.4326  -12.5934    3.6096 H   0  0  0  0  0  0  0  0  0  0  0  0
    0.7416  -12.2799    5.2810 H   0  0  0  0  0  0  0  0  0  0  0  0
    1.4147   -9.8610    2.6111 H   0  0  0  0  0  0  0  0  0  0  0  0
    0.0226  -10.6745    1.9852 H   0  0  0  0  0  0  0  0  0  0  0  0
   -0.0585   -8.1901    1.6375 H   0  0  0  0  0  0  0  0  0  0  0  0
   -1.4097   -8.6884    2.6348 H   0  0  0  0  0  0  0  0  0  0  0  0
    0.1647   -5.6791    4.0368 H   0  0  0  0  0  0  0  0  0  0  0  0
    5.4917   -6.2983    0.5767 H   0  0  0  0  0  0  0  0  0  0  0  0
    4.2634   -6.4531   -0.7199 H   0  0  0  0  0  0  0  0  0  0  0  0
    4.5888   -7.7676    0.3672 H   0  0  0  0  0  0  0  0  0  0  0  0
    4.8169   -3.8428    0.3813 H   0  0  0  0  0  0  0  0  0  0  0  0
    4.1501   -1.5631    1.2109 H   0  0  0  0  0  0  0  0  0  0  0  0
    2.2493   -1.3290    2.8010 H   0  0  0  0  0  0  0  0  0  0  0  0
    0.9952   -3.3547    3.6003 H   0  0  0  0  0  0  0  0  0  0  0  0
    0.3277   -7.5208    5.7567 H   0  0  0  0  0  0  0  0  0  0  0  0
   -1.1597   -8.3482    5.2616 H   0  0  0  0  0  0  0  0  0  0  0  0
    0.4426  -10.0007    6.1723 H   0  0  0  0  0  0  0  0  0  0  0  0
    1.7162   -9.3290    5.1651 H   0  0  0  0  0  0  0  0  0  0  0  0
   -0.7555  -10.6946    4.3480 H   0  0  0  0  0  0  0  0  0  0  0  0
  1  2  1  0
  1 21  1  0
  1 22  1  0
  1 23  1  0
  2  3  1  0
  2 24  1  0
  2 25  1  0
  3 20  1  0
  3  4  1  0
  3 42  1  0
  4  5  1  0
  4 26  1  0
  4 27  1  0
  5  6  1  0
  5 28  1  0
  5 29  1  0
  6  7  1  0
  6 19  1  0
  7  8  2  3
  7 30  1  0
  8 18  1  0
  8  9  1  0
  9 10  2  0
  9 11  1  0
 11 12  1  0
 11 13  1  0
 12 31  1  0
 12 32  1  0
 12 33  1  0
 13 18  2  0
 13 14  1  0
 14 15  2  0
 14 34  1  0
 15 16  1  0
 15 35  1  0
 16 17  2  0
 16 36  1  0
 17 18  1  0
 17 37  1  0
 19 20  1  0
 19 38  1  0
 19 39  1  0
 20 40  1  0
 20 41  1  0
M  CHG  1   3   1
M  END
>  <i_m_ct_stereo_status>  (7) 
1

>  <s_m_source_file>  (7) 
/var/tmp/pbs.5076255.sched01/tmpuvpulguu/0mmv31ww_.sdf

>  <i_m_source_file_index>  (7) 
4

>  <i_lp_mmshare_version>  (7) 
48012

>  <i_f3d_flags>  (7) 
0

>  <s_epik_input>  (7) 
W0NIM11bQ0gyXU4xW0NIMl1bQ0gyXU4oW0NIMl1bQ0gyXTEpL1tDSF09QyhcQyg9TylOMltDSDNdKWMoYzIzKVtjSF1bY0hdW2NIXVtjSF0z

>  <s_epik_cmdline>  (7) 
J2VwaWtfcHl0aG9uJywgJy1waHQnLCAnMi4wJywgJy1waCcsICc3LjAnLCAnLXRuJywgJzgnLCAnLW1hJywgJzIwMCcsICctaW1hZScsICc8aW5maWxlLm1hZT4nLCAnLW9tYWUnLCAnPG91dGZpbGUubWFlPic=

>  <r_epik_Ionization_Penalty>  (7) 
0.498312

>  <r_epik_Ionization_Penalty_Charging>  (7) 
0.498254

>  <r_epik_Ionization_Penalty_Neutral>  (7) 
5.75967e-05

>  <r_epik_State_Penalty>  (7) 
0.50453

>  <r_epik_Charging_Adjusted_Penalty>  (7) 
1.00278

>  <i_epik_Tot_Q>  (7) 
1

>  <i_epik_Tot_abs_Q>  (7) 
1

>  <s_lp_Force_Field>  (7) 
OPLS3e

>  <r_lp_Energy>  (7) 
29.6037

>  <b_lp_Chiralities_Consistent>  (7) 
1

>  <s_lp_Variant>  (7) 
1:0-3

>  <s_i_glide_gridfile>  (7) 
pfpi4k_grid

>  <i_i_glide_lignum>  (7) 
4

>  <i_i_glide_rotatable_bonds>  (7) 
2

>  <r_i_docking_score>  (7) 
-3.79289

>  <r_i_glide_ligand_efficiency>  (7) 
-0.189644

>  <r_i_glide_ligand_efficiency_sa>  (7) 
-0.514774

>  <r_i_glide_ligand_efficiency_ln>  (7) 
-0.949234

>  <r_i_glide_gscore>  (7) 
-3.79289

>  <r_i_glide_lipo>  (7) 
-0.203457

>  <r_i_glide_hbond>  (7) 
-0.2

>  <r_i_glide_metal>  (7) 
-0

>  <r_i_glide_rewards>  (7) 
-1.60892

>  <r_i_glide_evdw>  (7) 
-19.7495

>  <r_i_glide_ecoul>  (7) 
-6.16178

>  <r_i_glide_erotb>  (7) 
0.241571

>  <r_i_glide_esite>  (7) 
-0.110332

>  <r_i_glide_emodel>  (7) 
-31.2487

>  <r_i_glide_energy>  (7) 
-25.9113

>  <r_i_glide_einternal>  (7) 
5.58

>  <r_i_glide_intrahb_reward>  (7) 
-0

>  <i_i_glide_confnum>  (7) 
1

>  <i_i_glide_posenum>  (7) 
38

>  <r_i_glide_eff_state_penalty>  (7) 
0

>  <ligand_id>  (7) 
1

>  <original_smiles>  (7) 
CCN1CCN(C=C2C(=O)N(C)c3ccccc32)CC1

>  <smiles>  (7) 
[H]C(=C1C(=O)N(C([H])([H])[H])c2c([H])c([H])c([H])c([H])c21)N1C([H])([H])C([H])([H])[N+]([H])(C([H])([H])C([H])([H])[H])C([H])([H])C1([H])[H]

$$$$
1:2:1
     RDKit          3D

 42 44  0  0  1  0  0  0  0  0999 V2000
    2.4596  -11.7431    3.5192 C   0  0  0  0  0  0  0  0  0  0  0  0
    0.9913  -11.8852    4.0453 C   0  0  0  0  0  0  0  0  0  0  0  0
    0.2496  -10.6044    4.2033 N   0  0  0  0  0  0  0  0  0  0  0  0
    0.1462   -9.8440    2.9313 C   0  0  0  0  0  0  0  0  0  0  0  0
   -0.6012   -8.5074    3.0986 C   0  0  0  0  0  0  0  0  0  0  0  0
   -0.0773   -7.7311    4.2205 N   0  0  0  0  0  0  0  0  0  0  0  0
    0.3651   -6.4070    4.1434 C   0  0  0  0  0  0  0  0  0  0  0  0
    1.2836   -5.8580    3.2922 C   0  0  0  0  0  0  0  0  0  0  0  0
    2.0935   -6.5616    2.2917 C   0  0  0  0  0  0  0  0  0  0  0  0
    2.1197   -7.7413    1.9960 O   0  0  0  0  0  0  0  0  0  0  0  0
    2.8707   -5.6504    1.6743 N   0  0  0  0  0  0  0  0  0  0  0  0
    3.8195   -5.9581    0.6195 C   0  0  0  0  0  0  0  0  0  0  0  0
    2.6413   -4.3659    2.1921 C   0  0  0  0  0  0  0  0  0  0  0  0
    3.2335   -3.1631    1.8174 C   0  0  0  0  0  0  0  0  0  0  0  0
    2.8262   -1.9974    2.5058 C   0  0  0  0  0  0  0  0  0  0  0  0
    1.8398   -2.0694    3.5350 C   0  0  0  0  0  0  0  0  0  0  0  0
    1.2522   -3.3114    3.8901 C   0  0  0  0  0  0  0  0  0  0  0  0
    1.6796   -4.4508    3.2037 C   0  0  0  0  0  0  0  0  0  0  0  0
   -0.0315   -8.4723    5.4792 C   0  0  0  0  0  0  0  0  0  0  0  0
    0.7683   -9.7697    5.3270 C   0  0  0  0  0  0  0  0  0  0  0  0
    2.9943  -12.6888    3.5473 H   0  0  0  0  0  0  0  0  0  0  0  0
    3.0409  -11.0324    4.1062 H   0  0  0  0  0  0  0  0  0  0  0  0
    2.4919  -11.4129    2.4784 H   0  0  0  0  0  0  0  0  0  0  0  0
    0.4395  -12.5353    3.3674 H   0  0  0  0  0  0  0  0  0  0  0  0
    0.9886  -12.4183    4.9946 H   0  0  0  0  0  0  0  0  0  0  0  0
    1.1689   -9.6458    2.6594 H   0  0  0  0  0  0  0  0  0  0  0  0
   -0.2628  -10.4384    2.1081 H   0  0  0  0  0  0  0  0  0  0  0  0
   -0.4928   -7.9341    2.1709 H   0  0  0  0  0  0  0  0  0  0  0  0
   -1.6645   -8.6775    3.2378 H   0  0  0  0  0  0  0  0  0  0  0  0
   -0.1437   -5.7827    4.8447 H   0  0  0  0  0  0  0  0  0  0  0  0
    4.8002   -5.5437    0.8175 H   0  0  0  0  0  0  0  0  0  0  0  0
    3.4391   -5.6020   -0.3234 H   0  0  0  0  0  0  0  0  0  0  0  0
    3.9652   -7.0429    0.4994 H   0  0  0  0  0  0  0  0  0  0  0  0
    3.9750   -3.1328    1.0371 H   0  0  0  0  0  0  0  0  0  0  0  0
    3.2686   -1.0458    2.2440 H   0  0  0  0  0  0  0  0  0  0  0  0
    1.5490   -1.1637    4.0393 H   0  0  0  0  0  0  0  0  0  0  0  0
    0.5008   -3.3642    4.6658 H   0  0  0  0  0  0  0  0  0  0  0  0
    0.4508   -7.8616    6.2556 H   0  0  0  0  0  0  0  0  0  0  0  0
   -1.0343   -8.7147    5.8275 H   0  0  0  0  0  0  0  0  0  0  0  0
    0.7363  -10.3477    6.2511 H   0  0  0  0  0  0  0  0  0  0  0  0
    1.8139   -9.4821    5.1684 H   0  0  0  0  0  0  0  0  0  0  0  0
   -0.7221  -10.8155    4.4920 H   0  0  0  0  0  0  0  0  0  0  0  0
  1  2  1  0
  1 21  1  0
  1 22  1  0
  1 23  1  0
  2  3  1  0
  2 24  1  0
  2 25  1  0
  3 20  1  0
  3  4  1  0
  3 42  1  0
  4  5  1  0
  4 26  1  0
  4 27  1  0
  5  6  1  0
  5 28  1  0
  5 29  1  0
  6  7  1  0
  6 19  1  0
  7  8  2  3
  7 30  1  0
  8 18  1  0
  8  9  1  0
  9 10  2  0
  9 11  1  0
 11 12  1  0
 11 13  1  0
 12 31  1  0
 12 32  1  0
 12 33  1  0
 13 18  2  0
 13 14  1  0
 14 15  2  0
 14 34  1  0
 15 16  1  0
 15 35  1  0
 16 17  2  0
 16 36  1  0
 17 18  1  0
 17 37  1  0
 19 20  1  0
 19 38  1  0
 19 39  1  0
 20 40  1  0
 20 41  1  0
M  CHG  1   3   1
M  END
>  <i_m_ct_stereo_status>  (8) 
1

>  <s_m_source_file>  (8) 
/var/tmp/pbs.5076255.sched01/tmpuvpulguu/0mmv31ww_.sdf

>  <i_m_source_file_index>  (8) 
4

>  <i_lp_mmshare_version>  (8) 
48012

>  <i_f3d_flags>  (8) 
0

>  <s_epik_input>  (8) 
W0NIM11bQ0gyXU4xW0NIMl1bQ0gyXU4oW0NIMl1bQ0gyXTEpL1tDSF09QyhcQyg9TylOMltDSDNdKWMoYzIzKVtjSF1bY0hdW2NIXVtjSF0z

>  <s_epik_cmdline>  (8) 
J2VwaWtfcHl0aG9uJywgJy1waHQnLCAnMi4wJywgJy1waCcsICc3LjAnLCAnLXRuJywgJzgnLCAnLW1hJywgJzIwMCcsICctaW1hZScsICc8aW5maWxlLm1hZT4nLCAnLW9tYWUnLCAnPG91dGZpbGUubWFlPic=

>  <r_epik_Ionization_Penalty>  (8) 
0.498312

>  <r_epik_Ionization_Penalty_Charging>  (8) 
0.498254

>  <r_epik_Ionization_Penalty_Neutral>  (8) 
5.75967e-05

>  <r_epik_State_Penalty>  (8) 
0.50453

>  <r_epik_Charging_Adjusted_Penalty>  (8) 
1.00278

>  <i_epik_Tot_Q>  (8) 
1

>  <i_epik_Tot_abs_Q>  (8) 
1

>  <s_lp_Force_Field>  (8) 
OPLS3e

>  <r_lp_Energy>  (8) 
29.6037

>  <b_lp_Chiralities_Consistent>  (8) 
1

>  <s_lp_Variant>  (8) 
1:0-3

>  <s_i_glide_gridfile>  (8) 
pfpi4k_grid

>  <i_i_glide_lignum>  (8) 
4

>  <i_i_glide_rotatable_bonds>  (8) 
2

>  <r_i_docking_score>  (8) 
-3.53131

>  <r_i_glide_ligand_efficiency>  (8) 
-0.176566

>  <r_i_glide_ligand_efficiency_sa>  (8) 
-0.479273

>  <r_i_glide_ligand_efficiency_ln>  (8) 
-0.883771

>  <r_i_glide_gscore>  (8) 
-3.53131

>  <r_i_glide_lipo>  (8) 
-0.0978595

>  <r_i_glide_hbond>  (8) 
-0.2

>  <r_i_glide_metal>  (8) 
-0

>  <r_i_glide_rewards>  (8) 
-1.55205

>  <r_i_glide_evdw>  (8) 
-18.7722

>  <r_i_glide_ecoul>  (8) 
-5.7089

>  <r_i_glide_erotb>  (8) 
0.241571

>  <r_i_glide_esite>  (8) 
-0.128028

>  <r_i_glide_emodel>  (8) 
-29.1784

>  <r_i_glide_energy>  (8) 
-24.4811

>  <r_i_glide_einternal>  (8) 
5.38786

>  <r_i_glide_intrahb_reward>  (8) 
-0

>  <i_i_glide_confnum>  (8) 
3

>  <i_i_glide_posenum>  (8) 
1

>  <r_i_glide_eff_state_penalty>  (8) 
0

>  <ligand_id>  (8) 
1

>  <original_smiles>  (8) 
CCN1CCN(C=C2C(=O)N(C)c3ccccc32)CC1

>  <smiles>  (8) 
[H]C(=C1C(=O)N(C([H])([H])[H])c2c([H])c([H])c([H])c([H])c21)N1C([H])([H])C([H])([H])[N+]([H])(C([H])([H])C([H])([H])[H])C([H])([H])C1([H])[H]

$$$$
1:2:2
     RDKit          3D

 42 44  0  0  1  0  0  0  0  0999 V2000
   -1.9328   -7.8767    3.4345 C   0  0  0  0  0  0  0  0  0  0  0  0
   -0.7886   -8.5589    2.6821 C   0  0  0  0  0  0  0  0  0  0  0  0
   -0.2514   -9.7403    3.4349 N   0  0  0  0  0  0  0  0  0  0  0  0
    0.5881   -9.3445    4.6031 C   0  0  0  0  0  0  0  0  0  0  0  0
    1.0850  -10.5700    5.3722 C   0  0  0  0  0  0  0  0  0  0  0  0
    1.8014  -11.4504    4.4788 N   0  0  0  0  0  0  0  0  0  0  0  0
    3.0719  -11.8924    4.7866 C   0  0  0  0  0  0  0  0  0  0  0  0
    4.2344  -11.5682    4.1823 C   0  0  0  0  0  0  0  0  0  0  0  0
    4.3970  -10.6056    3.0719 C   0  0  0  0  0  0  0  0  0  0  0  0
    3.5558   -9.8714    2.5591 O   0  0  0  0  0  0  0  0  0  0  0  0
    5.6967  -10.5764    2.7363 N   0  0  0  0  0  0  0  0  0  0  0  0
    6.2722   -9.7549    1.6703 C   0  0  0  0  0  0  0  0  0  0  0  0
    6.4390  -11.3845    3.5910 C   0  0  0  0  0  0  0  0  0  0  0  0
    7.8334  -11.5892    3.6460 C   0  0  0  0  0  0  0  0  0  0  0  0
    8.3410  -12.4745    4.6191 C   0  0  0  0  0  0  0  0  0  0  0  0
    7.4681  -13.1242    5.5319 C   0  0  0  0  0  0  0  0  0  0  0  0
    6.0710  -12.8957    5.4791 C   0  0  0  0  0  0  0  0  0  0  0  0
    5.5864  -12.0171    4.4924 C   0  0  0  0  0  0  0  0  0  0  0  0
    1.0509  -11.8652    3.2951 C   0  0  0  0  0  0  0  0  0  0  0  0
    0.4595  -10.6716    2.5149 C   0  0  0  0  0  0  0  0  0  0  0  0
   -2.2089   -6.9761    2.8923 H   0  0  0  0  0  0  0  0  0  0  0  0
   -1.6853   -7.5796    4.4491 H   0  0  0  0  0  0  0  0  0  0  0  0
   -2.7847   -8.5472    3.4849 H   0  0  0  0  0  0  0  0  0  0  0  0
   -1.1771   -8.8593    1.7066 H   0  0  0  0  0  0  0  0  0  0  0  0
    0.0118   -7.8502    2.4602 H   0  0  0  0  0  0  0  0  0  0  0  0
    1.4451   -8.7568    4.2681 H   0  0  0  0  0  0  0  0  0  0  0  0
    0.0395   -8.7252    5.3168 H   0  0  0  0  0  0  0  0  0  0  0  0
    1.7412  -10.2321    6.1807 H   0  0  0  0  0  0  0  0  0  0  0  0
    0.2557  -11.1028    5.8370 H   0  0  0  0  0  0  0  0  0  0  0  0
    3.0701  -12.5869    5.6233 H   0  0  0  0  0  0  0  0  0  0  0  0
    6.9377  -10.3436    1.0497 H   0  0  0  0  0  0  0  0  0  0  0  0
    6.8051   -8.9069    2.0854 H   0  0  0  0  0  0  0  0  0  0  0  0
    5.5018   -9.3615    1.0167 H   0  0  0  0  0  0  0  0  0  0  0  0
    8.4819  -11.0755    2.9446 H   0  0  0  0  0  0  0  0  0  0  0  0
    9.4149  -12.6587    4.6601 H   0  0  0  0  0  0  0  0  0  0  0  0
    7.8818  -13.7976    6.2669 H   0  0  0  0  0  0  0  0  0  0  0  0
    5.3933  -13.3844    6.1801 H   0  0  0  0  0  0  0  0  0  0  0  0
    1.7114  -12.4440    2.6582 H   0  0  0  0  0  0  0  0  0  0  0  0
    0.2500  -12.5263    3.6097 H   0  0  0  0  0  0  0  0  0  0  0  0
   -0.1897  -11.0465    1.7126 H   0  0  0  0  0  0  0  0  0  0  0  0
    1.2104  -10.0767    2.0047 H   0  0  0  0  0  0  0  0  0  0  0  0
   -1.0277  -10.2531    3.8292 H   0  0  0  0  0  0  0  0  0  0  0  0
  1  2  1  0
  1 21  1  0
  1 22  1  0
  1 23  1  0
  2  3  1  0
  2 24  1  0
  2 25  1  0
  3 20  1  0
  3  4  1  0
  3 42  1  0
  4  5  1  0
  4 26  1  0
  4 27  1  0
  5  6  1  0
  5 28  1  0
  5 29  1  0
  6  7  1  0
  6 19  1  0
  7  8  2  3
  7 30  1  0
  8 18  1  0
  8  9  1  0
  9 10  2  0
  9 11  1  0
 11 12  1  0
 11 13  1  0
 12 31  1  0
 12 32  1  0
 12 33  1  0
 13 18  2  0
 13 14  1  0
 14 15  2  0
 14 34  1  0
 15 16  1  0
 15 35  1  0
 16 17  2  0
 16 36  1  0
 17 18  1  0
 17 37  1  0
 19 20  1  0
 19 38  1  0
 19 39  1  0
 20 40  1  0
 20 41  1  0
M  CHG  1   3   1
M  END
>  <i_m_ct_stereo_status>  (9) 
1

>  <s_m_source_file>  (9) 
/var/tmp/pbs.5076255.sched01/tmpuvpulguu/0mmv31ww_.sdf

>  <i_m_source_file_index>  (9) 
4

>  <i_lp_mmshare_version>  (9) 
48012

>  <i_f3d_flags>  (9) 
0

>  <s_epik_input>  (9) 
W0NIM11bQ0gyXU4xW0NIMl1bQ0gyXU4oW0NIMl1bQ0gyXTEpL1tDSF09QyhcQyg9TylOMltDSDNdKWMoYzIzKVtjSF1bY0hdW2NIXVtjSF0z

>  <s_epik_cmdline>  (9) 
J2VwaWtfcHl0aG9uJywgJy1waHQnLCAnMi4wJywgJy1waCcsICc3LjAnLCAnLXRuJywgJzgnLCAnLW1hJywgJzIwMCcsICctaW1hZScsICc8aW5maWxlLm1hZT4nLCAnLW9tYWUnLCAnPG91dGZpbGUubWFlPic=

>  <r_epik_Ionization_Penalty>  (9) 
0.498312

>  <r_epik_Ionization_Penalty_Charging>  (9) 
0.498254

>  <r_epik_Ionization_Penalty_Neutral>  (9) 
5.75967e-05

>  <r_epik_State_Penalty>  (9) 
0.50453

>  <r_epik_Charging_Adjusted_Penalty>  (9) 
1.00278

>  <i_epik_Tot_Q>  (9) 
1

>  <i_epik_Tot_abs_Q>  (9) 
1

>  <s_lp_Force_Field>  (9) 
OPLS3e

>  <r_lp_Energy>  (9) 
29.6037

>  <b_lp_Chiralities_Consistent>  (9) 
1

>  <s_lp_Variant>  (9) 
1:0-3

>  <s_i_glide_gridfile>  (9) 
pfpi4k_grid

>  <i_i_glide_lignum>  (9) 
4

>  <i_i_glide_rotatable_bonds>  (9) 
2

>  <r_i_docking_score>  (9) 
-3.49027

>  <r_i_glide_ligand_efficiency>  (9) 
-0.174513

>  <r_i_glide_ligand_efficiency_sa>  (9) 
-0.473702

>  <r_i_glide_ligand_efficiency_ln>  (9) 
-0.873499

>  <r_i_glide_gscore>  (9) 
-3.49027

>  <r_i_glide_lipo>  (9) 
-0.182533

>  <r_i_glide_hbond>  (9) 
-0.2

>  <r_i_glide_metal>  (9) 
-0

>  <r_i_glide_rewards>  (9) 
-1.55205

>  <r_i_glide_evdw>  (9) 
-20.3597

>  <r_i_glide_ecoul>  (9) 
-4.05655

>  <r_i_glide_erotb>  (9) 
0.241571

>  <r_i_glide_esite>  (9) 
-0.170786

>  <r_i_glide_emodel>  (9) 
-31.4409

>  <r_i_glide_energy>  (9) 
-24.4162

>  <r_i_glide_einternal>  (9) 
2.11476

>  <r_i_glide_intrahb_reward>  (9) 
-0

>  <i_i_glide_confnum>  (9) 
1

>  <i_i_glide_posenum>  (9) 
7

>  <r_i_glide_eff_state_penalty>  (9) 
0

>  <ligand_id>  (9) 
1

>  <original_smiles>  (9) 
CCN1CCN(C=C2C(=O)N(C)c3ccccc32)CC1

>  <smiles>  (9) 
[H]C(=C1C(=O)N(C([H])([H])[H])c2c([H])c([H])c([H])c([H])c21)N1C([H])([H])C([H])([H])[N+]([H])(C([H])([H])C([H])([H])[H])C([H])([H])C1([H])[H]

$$$$
1:3:0
     RDKit          3D

 42 44  0  0  1  0  0  0  0  0999 V2000
    1.0431  -11.5785    3.1661 C   0  0  0  0  0  0  0  0  0  0  0  0
    1.8468  -11.8533    4.4447 C   0  0  0  0  0  0  0  0  0  0  0  0
    1.8424  -10.6844    5.3254 N   0  0  0  0  0  0  0  0  0  0  0  0
    0.4723  -10.2337    5.7287 C   0  0  0  0  0  0  0  0  0  0  0  0
    0.5361   -9.0550    6.7045 C   0  0  0  0  0  0  0  0  0  0  0  0
    1.3738   -7.9881    6.1361 N   0  0  0  0  0  0  0  0  0  0  0  0
    0.9639   -6.6726    6.0398 C   0  0  0  0  0  0  0  0  0  0  0  0
    1.7038   -5.5295    6.0207 C   0  0  0  0  0  0  0  0  0  0  0  0
    1.0616   -4.2350    5.8500 C   0  0  0  0  0  0  0  0  0  0  0  0
   -0.1500   -3.9971    5.7603 O   0  0  0  0  0  0  0  0  0  0  0  0
    2.0514   -3.3003    5.8297 N   0  0  0  0  0  0  0  0  0  0  0  0
    1.8448   -1.8560    5.7221 C   0  0  0  0  0  0  0  0  0  0  0  0
    3.3225   -3.8996    5.9842 C   0  0  0  0  0  0  0  0  0  0  0  0
    4.6102   -3.2653    6.0228 C   0  0  0  0  0  0  0  0  0  0  0  0
    5.7495   -4.1102    6.1676 C   0  0  0  0  0  0  0  0  0  0  0  0
    5.5926   -5.4899    6.3207 C   0  0  0  0  0  0  0  0  0  0  0  0
    4.3002   -6.0887    6.3737 C   0  0  0  0  0  0  0  0  0  0  0  0
    3.1761   -5.2795    6.1404 C   0  0  0  0  0  0  0  0  0  0  0  0
    2.6841   -8.4511    5.6904 C   0  0  0  0  0  0  0  0  0  0  0  0
    2.6564   -9.6024    4.7504 C   0  0  0  0  0  0  0  0  0  0  0  0
    1.1253  -12.4945    2.5859 H   0  0  0  0  0  0  0  0  0  0  0  0
    1.3913  -10.7105    2.5834 H   0  0  0  0  0  0  0  0  0  0  0  0
   -0.0183  -11.4210    3.3815 H   0  0  0  0  0  0  0  0  0  0  0  0
    1.4185  -12.7048    4.9638 H   0  0  0  0  0  0  0  0  0  0  0  0
    2.8752  -12.1449    4.1994 H   0  0  0  0  0  0  0  0  0  0  0  0
   -0.0631   -9.8330    4.8634 H   0  0  0  0  0  0  0  0  0  0  0  0
   -0.1031  -11.0640    6.1538 H   0  0  0  0  0  0  0  0  0  0  0  0
   -0.4836   -8.6838    6.8567 H   0  0  0  0  0  0  0  0  0  0  0  0
    0.9452   -9.3503    7.6764 H   0  0  0  0  0  0  0  0  0  0  0  0
   -0.1148   -6.6056    5.9352 H   0  0  0  0  0  0  0  0  0  0  0  0
    2.5337   -1.4441    4.9819 H   0  0  0  0  0  0  0  0  0  0  0  0
    2.0309   -1.3729    6.6854 H   0  0  0  0  0  0  0  0  0  0  0  0
    0.8324   -1.6017    5.4029 H   0  0  0  0  0  0  0  0  0  0  0  0
    4.7055   -2.1779    5.9670 H   0  0  0  0  0  0  0  0  0  0  0  0
    6.7553   -3.6871    6.1975 H   0  0  0  0  0  0  0  0  0  0  0  0
    6.4302   -6.1514    6.4157 H   0  0  0  0  0  0  0  0  0  0  0  0
    4.2964   -7.1419    6.5818 H   0  0  0  0  0  0  0  0  0  0  0  0
    3.1835   -7.6580    5.1215 H   0  0  0  0  0  0  0  0  0  0  0  0
    3.2836   -8.7446    6.5609 H   0  0  0  0  0  0  0  0  0  0  0  0
    3.6753   -9.9359    4.5548 H   0  0  0  0  0  0  0  0  0  0  0  0
    2.2403   -9.2131    3.8247 H   0  0  0  0  0  0  0  0  0  0  0  0
    2.2720  -10.9954    6.1924 H   0  0  0  0  0  0  0  0  0  0  0  0
  1  2  1  0
  1 21  1  0
  1 22  1  0
  1 23  1  0
  2  3  1  0
  2 24  1  0
  2 25  1  0
  3 20  1  0
  3  4  1  0
  3 42  1  0
  4  5  1  0
  4 26  1  0
  4 27  1  0
  5  6  1  0
  5 28  1  0
  5 29  1  0
  6  7  1  0
  6 19  1  0
  7  8  2  3
  7 30  1  0
  8 18  1  0
  8  9  1  0
  9 10  2  0
  9 11  1  0
 11 12  1  0
 11 13  1  0
 12 31  1  0
 12 32  1  0
 12 33  1  0
 13 18  2  0
 13 14  1  0
 14 15  2  0
 14 34  1  0
 15 16  1  0
 15 35  1  0
 16 17  2  0
 16 36  1  0
 17 18  1  0
 17 37  1  0
 19 20  1  0
 19 38  1  0
 19 39  1  0
 20 40  1  0
 20 41  1  0
M  CHG  1   3   1
M  END
>  <i_m_ct_stereo_status>  (10) 
1

>  <s_m_source_file>  (10) 
/var/tmp/pbs.5076255.sched01/tmpuvpulguu/0mmv31ww_.sdf

>  <i_m_source_file_index>  (10) 
5

>  <i_lp_mmshare_version>  (10) 
48012

>  <i_f3d_flags>  (10) 
0

>  <s_epik_input>  (10) 
W0NIM11bQ0gyXU4xW0NIMl1bQ0gyXU4oW0NIMl1bQ0gyXTEpL1tDSF09QyhcQyg9TylOMltDSDNdKWMoYzIzKVtjSF1bY0hdW2NIXVtjSF0z

>  <s_epik_cmdline>  (10) 
J2VwaWtfcHl0aG9uJywgJy1waHQnLCAnMi4wJywgJy1waCcsICc3LjAnLCAnLXRuJywgJzgnLCAnLW1hJywgJzIwMCcsICctaW1hZScsICc8aW5maWxlLm1hZT4nLCAnLW9tYWUnLCAnPG91dGZpbGUubWFlPic=

>  <r_epik_Ionization_Penalty>  (10) 
0.498312

>  <r_epik_Ionization_Penalty_Charging>  (10) 
0.498254

>  <r_epik_Ionization_Penalty_Neutral>  (10) 
5.75967e-05

>  <r_epik_State_Penalty>  (10) 
0.50453

>  <r_epik_Charging_Adjusted_Penalty>  (10) 
1.00278

>  <i_epik_Tot_Q>  (10) 
1

>  <i_epik_Tot_abs_Q>  (10) 
1

>  <s_lp_Force_Field>  (10) 
OPLS3e

>  <r_lp_Energy>  (10) 
28.1236

>  <b_lp_Chiralities_Consistent>  (10) 
1

>  <s_lp_Variant>  (10) 
1:0-4

>  <s_i_glide_gridfile>  (10) 
pfpi4k_grid

>  <i_i_glide_lignum>  (10) 
5

>  <i_i_glide_rotatable_bonds>  (10) 
2

>  <r_i_docking_score>  (10) 
-2.8771

>  <r_i_glide_ligand_efficiency>  (10) 
-0.143855

>  <r_i_glide_ligand_efficiency_sa>  (10) 
-0.390483

>  <r_i_glide_ligand_efficiency_ln>  (10) 
-0.720044

>  <r_i_glide_gscore>  (10) 
-2.8771

>  <r_i_glide_lipo>  (10) 
-0.130295

>  <r_i_glide_hbond>  (10) 
-0.0568063

>  <r_i_glide_metal>  (10) 
-0

>  <r_i_glide_rewards>  (10) 
-1.55205

>  <r_i_glide_evdw>  (10) 
-10.7553

>  <r_i_glide_ecoul>  (10) 
-4.99464

>  <r_i_glide_erotb>  (10) 
0.241571

>  <r_i_glide_esite>  (10) 
-0.0925568

>  <r_i_glide_emodel>  (10) 
-15.9665

>  <r_i_glide_energy>  (10) 
-15.7499

>  <r_i_glide_einternal>  (10) 
4.97268

>  <r_i_glide_intrahb_reward>  (10) 
-0

>  <i_i_glide_confnum>  (10) 
6

>  <i_i_glide_posenum>  (10) 
1

>  <r_i_glide_eff_state_penalty>  (10) 
0

>  <ligand_id>  (10) 
1

>  <original_smiles>  (10) 
CCN1CCN(C=C2C(=O)N(C)c3ccccc32)CC1

>  <smiles>  (10) 
[H]C(=C1C(=O)N(C([H])([H])[H])c2c([H])c([H])c([H])c([H])c21)N1C([H])([H])C([H])([H])[N+]([H])(C([H])([H])C([H])([H])[H])C([H])([H])C1([H])[H]

$$$$
2:0:0
     RDKit          3D

 48 51  0  0  1  0  0  0  0  0999 V2000
    3.7973    0.3366   -4.4393 C   0  0  0  0  0  0  0  0  0  0  0  0
    4.2005    0.4146   -3.0966 O   0  0  0  0  0  0  0  0  0  0  0  0
    4.2458   -0.6511   -2.2789 C   0  0  0  0  0  0  0  0  0  0  0  0
    4.2472   -0.5893   -1.0686 O   0  0  0  0  0  0  0  0  0  0  0  0
    4.3471   -1.9592   -2.9476 C   0  0  2  0  0  0  0  0  0  0  0  0
    3.2543   -2.9985   -2.8805 C   0  0  2  0  0  0  0  0  0  0  0  0
    2.8536   -3.5360   -4.2209 C   0  0  0  0  0  0  0  0  0  0  0  0
    2.1771   -3.1390   -1.8574 C   0  0  0  0  0  0  0  0  0  0  0  0
    2.8140   -3.3256   -0.4301 C   0  0  2  0  0  0  0  0  0  0  0  0
    2.6010   -2.1842    0.3913 O   0  0  0  0  0  0  0  0  0  0  0  0
    3.3814   -1.8391    1.4161 C   0  0  0  0  0  0  0  0  0  0  0  0
    3.1922   -0.8016    2.0550 O   0  0  0  0  0  0  0  0  0  0  0  0
    4.5462   -2.7859    1.7305 C   0  0  1  0  0  0  0  0  0  0  0  0
    5.4217   -2.1378    2.6288 O   0  0  0  0  0  0  0  0  0  0  0  0
    4.0658   -4.0570    2.3978 C   0  0  0  0  0  0  0  0  0  0  0  0
    2.8880   -4.1103    3.3614 C   0  0  0  0  0  0  0  0  0  0  0  0
    4.8160   -5.0870    1.9970 C   0  0  0  0  0  0  0  0  0  0  0  0
    5.8794   -4.6248    1.0431 C   0  0  1  0  0  0  0  0  0  0  0  0
    6.2294   -5.6119    0.0930 O   0  0  0  0  0  0  0  0  0  0  0  0
    5.3113   -3.3005    0.4523 C   0  0  2  0  0  0  0  0  0  0  0  0
    6.4741   -2.3647    0.0345 C   0  0  0  0  0  0  0  0  0  0  0  0
    4.2760   -3.6353   -0.7050 C   0  0  2  0  0  0  0  0  0  0  0  0
    4.5471   -3.2310   -2.1761 C   0  0  2  0  0  0  0  0  0  0  0  0
    5.4279   -4.1524   -2.8419 C   0  0  0  0  0  0  0  0  0  0  0  0
    3.9054    1.3423   -4.8374 H   0  0  0  0  0  0  0  0  0  0  0  0
    2.7289    0.0746   -4.4703 H   0  0  0  0  0  0  0  0  0  0  0  0
    4.3910   -0.3517   -5.0299 H   0  0  0  0  0  0  0  0  0  0  0  0
    4.9492   -1.9447   -3.8502 H   0  0  0  0  0  0  0  0  0  0  0  0
    2.5554   -4.5769   -4.1391 H   0  0  0  0  0  0  0  0  0  0  0  0
    3.7029   -3.4806   -4.8857 H   0  0  0  0  0  0  0  0  0  0  0  0
    2.0293   -2.9857   -4.6655 H   0  0  0  0  0  0  0  0  0  0  0  0
    1.5568   -2.3065   -2.0369 H   0  0  0  0  0  0  0  0  0  0  0  0
    1.5967   -4.0481   -2.0932 H   0  0  0  0  0  0  0  0  0  0  0  0
    2.3122   -4.1636    0.0696 H   0  0  0  0  0  0  0  0  0  0  0  0
    5.7360   -1.3691    2.1844 H   0  0  0  0  0  0  0  0  0  0  0  0
    3.0497   -3.3974    4.1774 H   0  0  0  0  0  0  0  0  0  0  0  0
    2.7936   -5.1157    3.7868 H   0  0  0  0  0  0  0  0  0  0  0  0
    1.9430   -3.8622    2.8575 H   0  0  0  0  0  0  0  0  0  0  0  0
    4.7159   -6.1036    2.3491 H   0  0  0  0  0  0  0  0  0  0  0  0
    6.7580   -4.4073    1.6566 H   0  0  0  0  0  0  0  0  0  0  0  0
    5.4928   -5.7799   -0.4676 H   0  0  0  0  0  0  0  0  0  0  0  0
    6.9511   -2.6842   -0.8810 H   0  0  0  0  0  0  0  0  0  0  0  0
    7.2561   -2.3407    0.7868 H   0  0  0  0  0  0  0  0  0  0  0  0
    6.1985   -1.3269   -0.0896 H   0  0  0  0  0  0  0  0  0  0  0  0
    4.1878   -4.7157   -0.7578 H   0  0  0  0  0  0  0  0  0  0  0  0
    5.0064   -5.1540   -2.7084 H   0  0  0  0  0  0  0  0  0  0  0  0
    6.4352   -4.0117   -2.4373 H   0  0  0  0  0  0  0  0  0  0  0  0
    5.5220   -3.9359   -3.9156 H   0  0  0  0  0  0  0  0  0  0  0  0
  1  2  1  0
  1 25  1  0
  1 26  1  0
  1 27  1  0
  2  3  1  0
  3  4  2  0
  3  5  1  0
  5 23  1  0
  5  6  1  0
  5 28  1  6
  6 23  1  0
  6  7  1  6
  6  8  1  0
  7 29  1  0
  7 30  1  0
  7 31  1  0
  8  9  1  0
  8 32  1  0
  8 33  1  0
  9 22  1  0
  9 10  1  0
  9 34  1  1
 10 11  1  0
 11 12  2  0
 11 13  1  0
 13 20  1  0
 13 14  1  1
 13 15  1  0
 14 35  1  0
 15 16  1  0
 15 17  2  0
 16 36  1  0
 16 37  1  0
 16 38  1  0
 17 18  1  0
 17 39  1  0
 18 19  1  0
 18 20  1  0
 18 40  1  1
 19 41  1  0
 20 21  1  6
 20 22  1  0
 21 42  1  0
 21 43  1  0
 21 44  1  0
 22 23  1  0
 22 45  1  6
 23 24  1  6
 24 46  1  0
 24 47  1  0
 24 48  1  0
M  END
>  <i_m_ct_stereo_status>  (11) 
1

>  <s_m_source_file>  (11) 
/var/tmp/pbs.5076255.sched01/tmpuvpulguu/0mmv31ww_.sdf

>  <i_m_source_file_index>  (11) 
6

>  <i_lp_mmshare_version>  (11) 
48012

>  <i_f3d_flags>  (11) 
0

>  <s_epik_input>  (11) 
W0NIM11PQyg9TylbQ0BIXTFbQ0BdKFtDSDNdKShbQ0BdMTJbQ0gzXSlbQ0BASF0zW0NASF0oW0NIMl0yKU9DKD1PKVtDQF00KFtPSF0pW0NAQF0zKFtDSDNdKVtDQEhdKFtPSF0pW0NIXT1DNFtDSDNd

>  <s_epik_cmdline>  (11) 
J2VwaWtfcHl0aG9uJywgJy1waHQnLCAnMi4wJywgJy1waCcsICc3LjAnLCAnLXRuJywgJzgnLCAnLW1hJywgJzIwMCcsICctaW1hZScsICc8aW5maWxlLm1hZT4nLCAnLW9tYWUnLCAnPG91dGZpbGUubWFlPic=

>  <r_lp_tautomer_probability>  (11) 
1

>  <r_epik_Ionization_Penalty>  (11) 
1.25643e-06

>  <r_epik_Ionization_Penalty_Charging>  (11) 
0

>  <r_epik_Ionization_Penalty_Neutral>  (11) 
1.25643e-06

>  <r_epik_State_Penalty>  (11) 
-0

>  <r_epik_Charging_Adjusted_Penalty>  (11) 
0

>  <i_epik_Tot_Q>  (11) 
0

>  <i_epik_Tot_abs_Q>  (11) 
0

>  <s_epik_Chemistry_Notes>  (11) 
This compound has an ester and may undergo hydrolysis at high or low pH.

>  <s_lp_Force_Field>  (11) 
OPLS3e

>  <r_lp_Energy>  (11) 
60.5353

>  <b_lp_Chiralities_Consistent>  (11) 
1

>  <s_lp_Variant>  (11) 
2:0-1

>  <s_i_glide_gridfile>  (11) 
pfpi4k_grid

>  <i_i_glide_lignum>  (11) 
6

>  <i_i_glide_rotatable_bonds>  (11) 
4

>  <r_i_docking_score>  (11) 
-1.75582

>  <r_i_glide_ligand_efficiency>  (11) 
-0.0731591

>  <r_i_glide_ligand_efficiency_sa>  (11) 
-0.211027

>  <r_i_glide_ligand_efficiency_ln>  (11) 
-0.420248

>  <r_i_glide_gscore>  (11) 
-1.75582

>  <r_i_glide_lipo>  (11) 
-0.4862

>  <r_i_glide_hbond>  (11) 
0

>  <r_i_glide_metal>  (11) 
-0

>  <r_i_glide_rewards>  (11) 
-1.13204

>  <r_i_glide_evdw>  (11) 
-6.92939

>  <r_i_glide_ecoul>  (11) 
0.407565

>  <r_i_glide_erotb>  (11) 
0.166906

>  <r_i_glide_esite>  (11) 
-0.0191457

>  <r_i_glide_emodel>  (11) 
-2.48874

>  <r_i_glide_energy>  (11) 
-6.52182

>  <r_i_glide_einternal>  (11) 
8.01764

>  <r_i_glide_intrahb_reward>  (11) 
-0

>  <i_i_glide_confnum>  (11) 
4

>  <i_i_glide_posenum>  (11) 
8

>  <r_i_glide_eff_state_penalty>  (11) 
0

>  <ligand_id>  (11) 
2

>  <original_smiles>  (11) 
COC(=O)C1C2(C)CC3OC(=O)C4(O)C(C)=CC(O)C4(C)C3C12C

>  <smiles>  (11) 
[H]OC1([H])C([H])=C(C([H])([H])[H])C2(O[H])C(=O)OC3([H])C([H])([H])C4(C([H])([H])[H])C([H])(C(=O)OC([H])([H])[H])C4(C([H])([H])[H])C3([H])C12C([H])([H])[H]

$$$$
2:0:1
     RDKit          3D

 48 51  0  0  1  0  0  0  0  0999 V2000
    3.7629    0.3551   -4.3767 C   0  0  0  0  0  0  0  0  0  0  0  0
    4.2340    0.4175   -3.0462 O   0  0  0  0  0  0  0  0  0  0  0  0
    4.2314   -0.6602   -2.2338 C   0  0  0  0  0  0  0  0  0  0  0  0
    4.2469   -0.5874   -1.0237 O   0  0  0  0  0  0  0  0  0  0  0  0
    4.3621   -1.9590   -2.9100 C   0  0  2  0  0  0  0  0  0  0  0  0
    3.2794   -2.9984   -2.8558 C   0  0  2  0  0  0  0  0  0  0  0  0
    2.8773   -3.5115   -4.1993 C   0  0  0  0  0  0  0  0  0  0  0  0
    2.1855   -3.1550   -1.8588 C   0  0  0  0  0  0  0  0  0  0  0  0
    2.7914   -3.3517   -0.4416 C   0  0  2  0  0  0  0  0  0  0  0  0
    2.5708   -2.2357    0.4131 O   0  0  0  0  0  0  0  0  0  0  0  0
    3.3455   -1.9196    1.4361 C   0  0  0  0  0  0  0  0  0  0  0  0
    3.1430   -0.8824    2.1256 O   0  0  0  0  0  0  0  0  0  0  0  0
    4.4959   -2.8394    1.7452 C   0  0  1  0  0  0  0  0  0  0  0  0
    5.3490   -2.2328    2.6911 O   0  0  0  0  0  0  0  0  0  0  0  0
    4.0120   -4.1226    2.3927 C   0  0  0  0  0  0  0  0  0  0  0  0
    2.8411   -4.2056    3.3432 C   0  0  0  0  0  0  0  0  0  0  0  0
    4.7758   -5.1716    1.9895 C   0  0  0  0  0  0  0  0  0  0  0  0
    5.8494   -4.6863    1.0546 C   0  0  1  0  0  0  0  0  0  0  0  0
    6.2157   -5.6661    0.1043 O   0  0  0  0  0  0  0  0  0  0  0  0
    5.2909   -3.3451    0.4777 C   0  0  2  0  0  0  0  0  0  0  0  0
    6.4618   -2.4042    0.0883 C   0  0  0  0  0  0  0  0  0  0  0  0
    4.2646   -3.6550   -0.6969 C   0  0  2  0  0  0  0  0  0  0  0  0
    4.5671   -3.2311   -2.1516 C   0  0  2  0  0  0  0  0  0  0  0  0
    5.4482   -4.1490   -2.8305 C   0  0  0  0  0  0  0  0  0  0  0  0
    3.8827    1.3644   -4.7588 H   0  0  0  0  0  0  0  0  0  0  0  0
    2.7044    0.0901   -4.4039 H   0  0  0  0  0  0  0  0  0  0  0  0
    4.3629   -0.3275   -4.9884 H   0  0  0  0  0  0  0  0  0  0  0  0
    4.9732   -1.9198   -3.8105 H   0  0  0  0  0  0  0  0  0  0  0  0
    2.5808   -4.5590   -4.1521 H   0  0  0  0  0  0  0  0  0  0  0  0
    3.7070   -3.4319   -4.8931 H   0  0  0  0  0  0  0  0  0  0  0  0
    2.0313   -2.9369   -4.5461 H   0  0  0  0  0  0  0  0  0  0  0  0
    1.5709   -2.2939   -2.0244 H   0  0  0  0  0  0  0  0  0  0  0  0
    1.5965   -4.0368   -2.1175 H   0  0  0  0  0  0  0  0  0  0  0  0
    2.2967   -4.1919    0.0499 H   0  0  0  0  0  0  0  0  0  0  0  0
    4.7924   -1.9309    3.3979 H   0  0  0  0  0  0  0  0  0  0  0  0
    2.9880   -3.5076    4.1735 H   0  0  0  0  0  0  0  0  0  0  0  0
    2.7334   -5.2145    3.7558 H   0  0  0  0  0  0  0  0  0  0  0  0
    1.9024   -3.9460    2.8394 H   0  0  0  0  0  0  0  0  0  0  0  0
    4.6739   -6.1904    2.3101 H   0  0  0  0  0  0  0  0  0  0  0  0
    6.7284   -4.4811    1.6710 H   0  0  0  0  0  0  0  0  0  0  0  0
    5.4901   -5.7872   -0.4872 H   0  0  0  0  0  0  0  0  0  0  0  0
    6.9494   -2.7133   -0.8249 H   0  0  0  0  0  0  0  0  0  0  0  0
    7.2320   -2.4002    0.8545 H   0  0  0  0  0  0  0  0  0  0  0  0
    6.1825   -1.3671   -0.0207 H   0  0  0  0  0  0  0  0  0  0  0  0
    4.1748   -4.7401   -0.7666 H   0  0  0  0  0  0  0  0  0  0  0  0
    5.0205   -5.1481   -2.7197 H   0  0  0  0  0  0  0  0  0  0  0  0
    6.4473   -4.0169   -2.4114 H   0  0  0  0  0  0  0  0  0  0  0  0
    5.5466   -3.9141   -3.8966 H   0  0  0  0  0  0  0  0  0  0  0  0
  1  2  1  0
  1 25  1  0
  1 26  1  0
  1 27  1  0
  2  3  1  0
  3  4  2  0
  3  5  1  0
  5 23  1  0
  5  6  1  0
  5 28  1  6
  6 23  1  0
  6  7  1  6
  6  8  1  0
  7 29  1  0
  7 30  1  0
  7 31  1  0
  8  9  1  0
  8 32  1  0
  8 33  1  0
  9 22  1  0
  9 10  1  0
  9 34  1  1
 10 11  1  0
 11 12  2  0
 11 13  1  0
 13 20  1  0
 13 14  1  1
 13 15  1  0
 14 35  1  0
 15 16  1  0
 15 17  2  0
 16 36  1  0
 16 37  1  0
 16 38  1  0
 17 18  1  0
 17 39  1  0
 18 19  1  0
 18 20  1  0
 18 40  1  1
 19 41  1  0
 20 21  1  6
 20 22  1  0
 21 42  1  0
 21 43  1  0
 21 44  1  0
 22 23  1  0
 22 45  1  6
 23 24  1  6
 24 46  1  0
 24 47  1  0
 24 48  1  0
M  END
>  <i_m_ct_stereo_status>  (12) 
1

>  <s_m_source_file>  (12) 
/var/tmp/pbs.5076255.sched01/tmpuvpulguu/0mmv31ww_.sdf

>  <i_m_source_file_index>  (12) 
6

>  <i_lp_mmshare_version>  (12) 
48012

>  <i_f3d_flags>  (12) 
0

>  <s_epik_input>  (12) 
W0NIM11PQyg9TylbQ0BIXTFbQ0BdKFtDSDNdKShbQ0BdMTJbQ0gzXSlbQ0BASF0zW0NASF0oW0NIMl0yKU9DKD1PKVtDQF00KFtPSF0pW0NAQF0zKFtDSDNdKVtDQEhdKFtPSF0pW0NIXT1DNFtDSDNd

>  <s_epik_cmdline>  (12) 
J2VwaWtfcHl0aG9uJywgJy1waHQnLCAnMi4wJywgJy1waCcsICc3LjAnLCAnLXRuJywgJzgnLCAnLW1hJywgJzIwMCcsICctaW1hZScsICc8aW5maWxlLm1hZT4nLCAnLW9tYWUnLCAnPG91dGZpbGUubWFlPic=

>  <r_lp_tautomer_probability>  (12) 
1

>  <r_epik_Ionization_Penalty>  (12) 
1.25643e-06

>  <r_epik_Ionization_Penalty_Charging>  (12) 
0

>  <r_epik_Ionization_Penalty_Neutral>  (12) 
1.25643e-06

>  <r_epik_State_Penalty>  (12) 
-0

>  <r_epik_Charging_Adjusted_Penalty>  (12) 
0

>  <i_epik_Tot_Q>  (12) 
0

>  <i_epik_Tot_abs_Q>  (12) 
0

>  <s_epik_Chemistry_Notes>  (12) 
This compound has an ester and may undergo hydrolysis at high or low pH.

>  <s_lp_Force_Field>  (12) 
OPLS3e

>  <r_lp_Energy>  (12) 
60.5353

>  <b_lp_Chiralities_Consistent>  (12) 
1

>  <s_lp_Variant>  (12) 
2:0-1

>  <s_i_glide_gridfile>  (12) 
pfpi4k_grid

>  <i_i_glide_lignum>  (12) 
6

>  <i_i_glide_rotatable_bonds>  (12) 
4

>  <r_i_docking_score>  (12) 
-1.67253

>  <r_i_glide_ligand_efficiency>  (12) 
-0.0696889

>  <r_i_glide_ligand_efficiency_sa>  (12) 
-0.201018

>  <r_i_glide_ligand_efficiency_ln>  (12) 
-0.400314

>  <r_i_glide_gscore>  (12) 
-1.67253

>  <r_i_glide_lipo>  (12) 
-0.466728

>  <r_i_glide_hbond>  (12) 
0

>  <r_i_glide_metal>  (12) 
-0

>  <r_i_glide_rewards>  (12) 
-1.1206

>  <r_i_glide_evdw>  (12) 
-5.65504

>  <r_i_glide_ecoul>  (12) 
0.325511

>  <r_i_glide_erotb>  (12) 
0.166906

>  <r_i_glide_esite>  (12) 
-0.0181911

>  <r_i_glide_emodel>  (12) 
-2.45319

>  <r_i_glide_energy>  (12) 
-5.32953

>  <r_i_glide_einternal>  (12) 
7.97009

>  <r_i_glide_intrahb_reward>  (12) 
-0

>  <i_i_glide_confnum>  (12) 
4

>  <i_i_glide_posenum>  (12) 
4

>  <r_i_glide_eff_state_penalty>  (12) 
0

>  <ligand_id>  (12) 
2

>  <original_smiles>  (12) 
COC(=O)C1C2(C)CC3OC(=O)C4(O)C(C)=CC(O)C4(C)C3C12C

>  <smiles>  (12) 
[H]OC1([H])C([H])=C(C([H])([H])[H])C2(O[H])C(=O)OC3([H])C([H])([H])C4(C([H])([H])[H])C([H])(C(=O)OC([H])([H])[H])C4(C([H])([H])[H])C3([H])C12C([H])([H])[H]

$$$$
2:0:2
     RDKit          3D

 48 51  0  0  1  0  0  0  0  0999 V2000
    3.6937    0.2445   -4.3737 C   0  0  0  0  0  0  0  0  0  0  0  0
    4.1540    0.4199   -3.0519 O   0  0  0  0  0  0  0  0  0  0  0  0
    4.2566   -0.6626   -2.2211 C   0  0  0  0  0  0  0  0  0  0  0  0
    4.3208   -0.5826   -1.0039 O   0  0  0  0  0  0  0  0  0  0  0  0
    4.4040   -1.9636   -2.8984 C   0  0  2  0  0  0  0  0  0  0  0  0
    3.3153   -3.0133   -2.8862 C   0  0  2  0  0  0  0  0  0  0  0  0
    2.9455   -3.5315   -4.2496 C   0  0  0  0  0  0  0  0  0  0  0  0
    2.2117   -3.1712   -1.8837 C   0  0  0  0  0  0  0  0  0  0  0  0
    2.8169   -3.3589   -0.4649 C   0  0  2  0  0  0  0  0  0  0  0  0
    2.6357   -2.2123    0.3380 O   0  0  0  0  0  0  0  0  0  0  0  0
    3.3620   -1.9078    1.3965 C   0  0  0  0  0  0  0  0  0  0  0  0
    3.1065   -0.8932    2.0525 O   0  0  0  0  0  0  0  0  0  0  0  0
    4.5001   -2.8740    1.7489 C   0  0  1  0  0  0  0  0  0  0  0  0
    5.3362   -2.2203    2.6829 O   0  0  0  0  0  0  0  0  0  0  0  0
    4.0163   -4.1733    2.3748 C   0  0  0  0  0  0  0  0  0  0  0  0
    2.8236   -4.2432    3.3159 C   0  0  0  0  0  0  0  0  0  0  0  0
    4.7868   -5.1831    1.9662 C   0  0  0  0  0  0  0  0  0  0  0  0
    5.8678   -4.6935    1.0525 C   0  0  1  0  0  0  0  0  0  0  0  0
    6.2302   -5.6717    0.1265 O   0  0  0  0  0  0  0  0  0  0  0  0
    5.3049   -3.3673    0.4818 C   0  0  2  0  0  0  0  0  0  0  0  0
    6.4814   -2.4223    0.1116 C   0  0  0  0  0  0  0  0  0  0  0  0
    4.2969   -3.6787   -0.7158 C   0  0  2  0  0  0  0  0  0  0  0  0
    4.6166   -3.2459   -2.1647 C   0  0  2  0  0  0  0  0  0  0  0  0
    5.5476   -4.1243   -2.8312 C   0  0  0  0  0  0  0  0  0  0  0  0
    3.5930    1.2486   -4.7639 H   0  0  0  0  0  0  0  0  0  0  0  0
    2.7080   -0.2440   -4.4134 H   0  0  0  0  0  0  0  0  0  0  0  0
    4.4272   -0.3048   -4.9767 H   0  0  0  0  0  0  0  0  0  0  0  0
    5.0231   -1.9075   -3.7891 H   0  0  0  0  0  0  0  0  0  0  0  0
    2.6632   -4.5814   -4.1881 H   0  0  0  0  0  0  0  0  0  0  0  0
    3.8001   -3.4701   -4.9127 H   0  0  0  0  0  0  0  0  0  0  0  0
    2.1212   -2.9754   -4.6776 H   0  0  0  0  0  0  0  0  0  0  0  0
    1.5880   -2.3045   -2.0419 H   0  0  0  0  0  0  0  0  0  0  0  0
    1.6273   -4.0562   -2.1536 H   0  0  0  0  0  0  0  0  0  0  0  0
    2.3142   -4.1971    0.0333 H   0  0  0  0  0  0  0  0  0  0  0  0
    5.9945   -2.8343    2.9375 H   0  0  0  0  0  0  0  0  0  0  0  0
    2.9680   -3.5469    4.1476 H   0  0  0  0  0  0  0  0  0  0  0  0
    2.7269   -5.2515    3.7170 H   0  0  0  0  0  0  0  0  0  0  0  0
    1.8913   -3.9885    2.7989 H   0  0  0  0  0  0  0  0  0  0  0  0
    4.6853   -6.2004    2.2943 H   0  0  0  0  0  0  0  0  0  0  0  0
    6.7366   -4.5030    1.6787 H   0  0  0  0  0  0  0  0  0  0  0  0
    5.5301   -5.8232   -0.4865 H   0  0  0  0  0  0  0  0  0  0  0  0
    6.9809   -2.7216   -0.8007 H   0  0  0  0  0  0  0  0  0  0  0  0
    7.2539   -2.4359    0.8784 H   0  0  0  0  0  0  0  0  0  0  0  0
    6.2010   -1.3805    0.0114 H   0  0  0  0  0  0  0  0  0  0  0  0
    4.2121   -4.7629   -0.7893 H   0  0  0  0  0  0  0  0  0  0  0  0
    5.1230   -5.1298   -2.7211 H   0  0  0  0  0  0  0  0  0  0  0  0
    6.5427   -3.9847   -2.3929 H   0  0  0  0  0  0  0  0  0  0  0  0
    5.6293   -3.8884   -3.9022 H   0  0  0  0  0  0  0  0  0  0  0  0
  1  2  1  0
  1 25  1  0
  1 26  1  0
  1 27  1  0
  2  3  1  0
  3  4  2  0
  3  5  1  0
  5 23  1  0
  5  6  1  0
  5 28  1  6
  6 23  1  0
  6  7  1  6
  6  8  1  0
  7 29  1  0
  7 30  1  0
  7 31  1  0
  8  9  1  0
  8 32  1  0
  8 33  1  0
  9 22  1  0
  9 10  1  0
  9 34  1  1
 10 11  1  0
 11 12  2  0
 11 13  1  0
 13 20  1  0
 13 14  1  1
 13 15  1  0
 14 35  1  0
 15 16  1  0
 15 17  2  0
 16 36  1  0
 16 37  1  0
 16 38  1  0
 17 18  1  0
 17 39  1  0
 18 19  1  0
 18 20  1  0
 18 40  1  1
 19 41  1  0
 20 21  1  6
 20 22  1  0
 21 42  1  0
 21 43  1  0
 21 44  1  0
 22 23  1  0
 22 45  1  6
 23 24  1  6
 24 46  1  0
 24 47  1  0
 24 48  1  0
M  END
>  <i_m_ct_stereo_status>  (13) 
1

>  <s_m_source_file>  (13) 
/var/tmp/pbs.5076255.sched01/tmpuvpulguu/0mmv31ww_.sdf

>  <i_m_source_file_index>  (13) 
6

>  <i_lp_mmshare_version>  (13) 
48012

>  <i_f3d_flags>  (13) 
0

>  <s_epik_input>  (13) 
W0NIM11PQyg9TylbQ0BIXTFbQ0BdKFtDSDNdKShbQ0BdMTJbQ0gzXSlbQ0BASF0zW0NASF0oW0NIMl0yKU9DKD1PKVtDQF00KFtPSF0pW0NAQF0zKFtDSDNdKVtDQEhdKFtPSF0pW0NIXT1DNFtDSDNd

>  <s_epik_cmdline>  (13) 
J2VwaWtfcHl0aG9uJywgJy1waHQnLCAnMi4wJywgJy1waCcsICc3LjAnLCAnLXRuJywgJzgnLCAnLW1hJywgJzIwMCcsICctaW1hZScsICc8aW5maWxlLm1hZT4nLCAnLW9tYWUnLCAnPG91dGZpbGUubWFlPic=

>  <r_lp_tautomer_probability>  (13) 
1

>  <r_epik_Ionization_Penalty>  (13) 
1.25643e-06

>  <r_epik_Ionization_Penalty_Charging>  (13) 
0

>  <r_epik_Ionization_Penalty_Neutral>  (13) 
1.25643e-06

>  <r_epik_State_Penalty>  (13) 
-0

>  <r_epik_Charging_Adjusted_Penalty>  (13) 
0

>  <i_epik_Tot_Q>  (13) 
0

>  <i_epik_Tot_abs_Q>  (13) 
0

>  <s_epik_Chemistry_Notes>  (13) 
This compound has an ester and may undergo hydrolysis at high or low pH.

>  <s_lp_Force_Field>  (13) 
OPLS3e

>  <r_lp_Energy>  (13) 
60.5353

>  <b_lp_Chiralities_Consistent>  (13) 
1

>  <s_lp_Variant>  (13) 
2:0-1

>  <s_i_glide_gridfile>  (13) 
pfpi4k_grid

>  <i_i_glide_lignum>  (13) 
6

>  <i_i_glide_rotatable_bonds>  (13) 
4

>  <r_i_docking_score>  (13) 
-1.47367

>  <r_i_glide_ligand_efficiency>  (13) 
-0.0614031

>  <r_i_glide_ligand_efficiency_sa>  (13) 
-0.177117

>  <r_i_glide_ligand_efficiency_ln>  (13) 
-0.352718

>  <r_i_glide_gscore>  (13) 
-1.47367

>  <r_i_glide_lipo>  (13) 
-0.510134

>  <r_i_glide_hbond>  (13) 
0

>  <r_i_glide_metal>  (13) 
-0

>  <r_i_glide_rewards>  (13) 
-1.11559

>  <r_i_glide_evdw>  (13) 
-2.5064

>  <r_i_glide_ecoul>  (13) 
0.870257

>  <r_i_glide_erotb>  (13) 
0.166906

>  <r_i_glide_esite>  (13) 
-0.0200704

>  <r_i_glide_emodel>  (13) 
0.519774

>  <r_i_glide_energy>  (13) 
-1.63614

>  <r_i_glide_einternal>  (13) 
5.57463

>  <r_i_glide_intrahb_reward>  (13) 
-0

>  <i_i_glide_confnum>  (13) 
4

>  <i_i_glide_posenum>  (13) 
5

>  <r_i_glide_eff_state_penalty>  (13) 
0

>  <ligand_id>  (13) 
2

>  <original_smiles>  (13) 
COC(=O)C1C2(C)CC3OC(=O)C4(O)C(C)=CC(O)C4(C)C3C12C

>  <smiles>  (13) 
[H]OC1([H])C([H])=C(C([H])([H])[H])C2(O[H])C(=O)OC3([H])C([H])([H])C4(C([H])([H])[H])C([H])(C(=O)OC([H])([H])[H])C4(C([H])([H])[H])C3([H])C12C([H])([H])[H]

$$$$
3:0:0
     RDKit          3D

 35 37  0  0  1  0  0  0  0  0999 V2000
    2.2275   -3.8411   -0.8662 C   0  0  0  0  0  0  0  0  0  0  0  0
    3.6309   -3.3392   -0.5730 C   0  0  0  0  0  0  0  0  0  0  0  0
    4.4136   -4.0076    0.3100 C   0  0  0  0  0  0  0  0  0  0  0  0
    5.8070   -3.6257    0.8506 C   0  0  1  0  0  0  0  0  0  0  0  0
    6.4431   -4.8368    1.5510 C   0  0  0  0  0  0  0  0  0  0  0  0
    6.7549   -3.2489   -0.1710 O   0  0  0  0  0  0  0  0  0  0  0  0
    6.2786   -2.3218   -1.0504 C   0  0  0  0  0  0  0  0  0  0  0  0
    6.0468   -2.6768   -2.3131 C   0  0  0  0  0  0  0  0  0  0  0  0
    4.6596   -2.2203   -2.6923 C   0  0  1  0  0  0  0  0  0  0  0  0
    3.9502   -3.1860   -3.6447 C   0  0  0  0  0  0  0  0  0  0  0  0
    4.0251   -2.0115   -1.2743 C   0  0  2  0  0  0  0  0  0  0  0  0
    5.2136   -1.3751   -0.5424 C   0  0  1  0  0  0  0  0  0  0  0  0
    5.0992   -1.2110    0.9861 C   0  0  0  0  0  0  0  0  0  0  0  0
    5.6838   -2.3918    1.7751 C   0  0  1  0  0  0  0  0  0  0  0  0
    4.9007   -2.6072    3.0850 C   0  0  0  0  0  0  0  0  0  0  0  0
    1.5063   -3.0568   -0.6551 H   0  0  0  0  0  0  0  0  0  0  0  0
    1.9791   -4.6958   -0.2351 H   0  0  0  0  0  0  0  0  0  0  0  0
    2.0885   -4.1350   -1.9059 H   0  0  0  0  0  0  0  0  0  0  0  0
    4.0070   -4.9034    0.7558 H   0  0  0  0  0  0  0  0  0  0  0  0
    5.8102   -5.2173    2.3549 H   0  0  0  0  0  0  0  0  0  0  0  0
    7.4127   -4.5842    1.9817 H   0  0  0  0  0  0  0  0  0  0  0  0
    6.5967   -5.6534    0.8445 H   0  0  0  0  0  0  0  0  0  0  0  0
    6.5149   -3.5261   -2.7969 H   0  0  0  0  0  0  0  0  0  0  0  0
    4.7514   -1.2494   -3.1832 H   0  0  0  0  0  0  0  0  0  0  0  0
    4.4485   -3.2131   -4.6103 H   0  0  0  0  0  0  0  0  0  0  0  0
    2.9201   -2.8794   -3.8132 H   0  0  0  0  0  0  0  0  0  0  0  0
    3.9538   -4.2046   -3.2634 H   0  0  0  0  0  0  0  0  0  0  0  0
    3.1700   -1.3346   -1.2967 H   0  0  0  0  0  0  0  0  0  0  0  0
    5.4048   -0.3904   -0.9683 H   0  0  0  0  0  0  0  0  0  0  0  0
    5.6521   -0.3168    1.2728 H   0  0  0  0  0  0  0  0  0  0  0  0
    4.0593   -1.0150    1.2618 H   0  0  0  0  0  0  0  0  0  0  0  0
    6.6957   -2.1115    2.0590 H   0  0  0  0  0  0  0  0  0  0  0  0
    3.8654   -2.8867    2.8931 H   0  0  0  0  0  0  0  0  0  0  0  0
    4.8850   -1.6862    3.6687 H   0  0  0  0  0  0  0  0  0  0  0  0
    5.3521   -3.3757    3.7106 H   0  0  0  0  0  0  0  0  0  0  0  0
  1  2  1  0
  1 16  1  0
  1 17  1  0
  1 18  1  0
  2 11  1  0
  2  3  2  0
  3  4  1  0
  3 19  1  0
  4 14  1  0
  4  5  1  1
  4  6  1  0
  5 20  1  0
  5 21  1  0
  5 22  1  0
  6  7  1  0
  7 12  1  0
  7  8  2  0
  8  9  1  0
  8 23  1  0
  9 10  1  0
  9 11  1  0
  9 24  1  6
 10 25  1  0
 10 26  1  0
 10 27  1  0
 11 12  1  0
 11 28  1  6
 12 13  1  0
 12 29  1  6
 13 14  1  0
 13 30  1  0
 13 31  1  0
 14 15  1  0
 14 32  1  1
 15 33  1  0
 15 34  1  0
 15 35  1  0
M  END
>  <i_m_ct_stereo_status>  (14) 
1

>  <s_m_source_file>  (14) 
/var/tmp/pbs.5076255.sched01/tmpuvpulguu/0mmv31ww_.sdf

>  <i_m_source_file_index>  (14) 
7

>  <i_lp_mmshare_version>  (14) 
48012

>  <i_f3d_flags>  (14) 
1

>  <s_epik_input>  (14) 
W0NIM11bQ0BdMTJbQ0hdPUMoW0NIM10pW0NASF0zW0NAQEhdKFtDSDJdW0NASF0yW0NIM10pQyhPMSk9W0NIXVtDQEhdM1tDSDNd

>  <s_epik_cmdline>  (14) 
J2VwaWtfcHl0aG9uJywgJy1waHQnLCAnMi4wJywgJy1waCcsICc3LjAnLCAnLXRuJywgJzgnLCAnLW1hJywgJzIwMCcsICctaW1hZScsICc8aW5maWxlLm1hZT4nLCAnLW9tYWUnLCAnPG91dGZpbGUubWFlPic=

>  <r_lp_tautomer_probability>  (14) 
1

>  <r_epik_Ionization_Penalty>  (14) 
0

>  <r_epik_Ionization_Penalty_Charging>  (14) 
0

>  <r_epik_Ionization_Penalty_Neutral>  (14) 
0

>  <r_epik_State_Penalty>  (14) 
-0

>  <r_epik_Charging_Adjusted_Penalty>  (14) 
0

>  <i_epik_Tot_Q>  (14) 
0

>  <i_epik_Tot_abs_Q>  (14) 
0

>  <s_lp_Force_Field>  (14) 
OPLS3e

>  <r_lp_Energy>  (14) 
42.4509

>  <b_lp_Chiralities_Consistent>  (14) 
1

>  <s_lp_Variant>  (14) 
3:0-1

>  <s_i_glide_gridfile>  (14) 
pfpi4k_grid

>  <i_i_glide_lignum>  (14) 
7

>  <i_i_glide_rotatable_bonds>  (14) 
0

>  <r_i_docking_score>  (14) 
-3.8416

>  <r_i_glide_ligand_efficiency>  (14) 
-0.256106

>  <r_i_glide_ligand_efficiency_sa>  (14) 
-0.631613

>  <r_i_glide_ligand_efficiency_ln>  (14) 
-1.03602

>  <r_i_glide_gscore>  (14) 
-3.8416

>  <r_i_glide_lipo>  (14) 
-0.786506

>  <r_i_glide_hbond>  (14) 
0

>  <r_i_glide_metal>  (14) 
-0

>  <r_i_glide_rewards>  (14) 
-2.01608

>  <r_i_glide_evdw>  (14) 
-19.8692

>  <r_i_glide_ecoul>  (14) 
-0.303645

>  <r_i_glide_erotb>  (14) 
0

>  <r_i_glide_esite>  (14) 
0

>  <r_i_glide_emodel>  (14) 
-24.8545

>  <r_i_glide_energy>  (14) 
-20.1729

>  <r_i_glide_einternal>  (14) 
0

>  <r_i_glide_intrahb_reward>  (14) 
-0

>  <i_i_glide_confnum>  (14) 
1

>  <i_i_glide_posenum>  (14) 
6

>  <r_i_glide_eff_state_penalty>  (14) 
0

>  <ligand_id>  (14) 
3

>  <original_smiles>  (14) 
CC1=CC2(C)OC3=CC(C)C1C3CC2C

>  <smiles>  (14) 
[H]C1=C2OC3(C([H])([H])[H])C([H])=C(C([H])([H])[H])C([H])(C1([H])C([H])([H])[H])C2([H])C([H])([H])C3([H])C([H])([H])[H]

$$$$
3:0:1
     RDKit          3D

 35 37  0  0  1  0  0  0  0  0999 V2000
    4.2034   -3.9943   -4.2397 C   0  0  0  0  0  0  0  0  0  0  0  0
    4.5801   -3.2544   -2.9768 C   0  0  0  0  0  0  0  0  0  0  0  0
    5.8132   -3.4209   -2.4374 C   0  0  0  0  0  0  0  0  0  0  0  0
    6.3956   -2.8756   -1.1174 C   0  0  1  0  0  0  0  0  0  0  0  0
    7.9261   -3.0447   -1.0914 C   0  0  0  0  0  0  0  0  0  0  0  0
    6.1968   -1.4583   -0.9382 O   0  0  0  0  0  0  0  0  0  0  0  0
    4.9030   -1.0717   -1.1543 C   0  0  0  0  0  0  0  0  0  0  0  0
    4.6164   -0.3339   -2.2199 C   0  0  0  0  0  0  0  0  0  0  0  0
    3.4433   -0.9254   -2.9340 C   0  0  1  0  0  0  0  0  0  0  0  0
    3.5322   -0.7346   -4.4478 C   0  0  0  0  0  0  0  0  0  0  0  0
    3.4581   -2.3844   -2.3606 C   0  0  2  0  0  0  0  0  0  0  0  0
    3.8179   -2.0812   -0.8970 C   0  0  1  0  0  0  0  0  0  0  0  0
    4.1823   -3.2730    0.0106 C   0  0  0  0  0  0  0  0  0  0  0  0
    5.6967   -3.5414    0.0924 C   0  0  1  0  0  0  0  0  0  0  0  0
    5.9398   -5.0510    0.2588 C   0  0  0  0  0  0  0  0  0  0  0  0
    3.2961   -4.5770   -4.0671 H   0  0  0  0  0  0  0  0  0  0  0  0
    4.9897   -4.6790   -4.5410 H   0  0  0  0  0  0  0  0  0  0  0  0
    3.9628   -3.3274   -5.0601 H   0  0  0  0  0  0  0  0  0  0  0  0
    6.4946   -4.0544   -2.9719 H   0  0  0  0  0  0  0  0  0  0  0  0
    8.2220   -4.0860   -1.2011 H   0  0  0  0  0  0  0  0  0  0  0  0
    8.3454   -2.6864   -0.1534 H   0  0  0  0  0  0  0  0  0  0  0  0
    8.3954   -2.4937   -1.9079 H   0  0  0  0  0  0  0  0  0  0  0  0
    5.3068    0.3006   -2.7149 H   0  0  0  0  0  0  0  0  0  0  0  0
    2.5474   -0.4052   -2.5851 H   0  0  0  0  0  0  0  0  0  0  0  0
    3.4402    0.3183   -4.7219 H   0  0  0  0  0  0  0  0  0  0  0  0
    2.7064   -1.2573   -4.9050 H   0  0  0  0  0  0  0  0  0  0  0  0
    4.4764   -1.0989   -4.8543 H   0  0  0  0  0  0  0  0  0  0  0  0
    2.4938   -2.8792   -2.4446 H   0  0  0  0  0  0  0  0  0  0  0  0
    3.0035   -1.5347   -0.4240 H   0  0  0  0  0  0  0  0  0  0  0  0
    3.8390   -3.0404    1.0129 H   0  0  0  0  0  0  0  0  0  0  0  0
    3.6218   -4.1576   -0.3032 H   0  0  0  0  0  0  0  0  0  0  0  0
    6.0805   -3.0475    0.9881 H   0  0  0  0  0  0  0  0  0  0  0  0
    5.5708   -5.6094   -0.6006 H   0  0  0  0  0  0  0  0  0  0  0  0
    5.4102   -5.4274    1.1342 H   0  0  0  0  0  0  0  0  0  0  0  0
    6.9952   -5.2802    0.3934 H   0  0  0  0  0  0  0  0  0  0  0  0
  1  2  1  0
  1 16  1  0
  1 17  1  0
  1 18  1  0
  2 11  1  0
  2  3  2  0
  3  4  1  0
  3 19  1  0
  4 14  1  0
  4  5  1  6
  4  6  1  0
  5 20  1  0
  5 21  1  0
  5 22  1  0
  6  7  1  0
  7 12  1  0
  7  8  2  0
  8  9  1  0
  8 23  1  0
  9 10  1  0
  9 11  1  0
  9 24  1  1
 10 25  1  0
 10 26  1  0
 10 27  1  0
 11 12  1  0
 11 28  1  1
 12 13  1  0
 12 29  1  1
 13 14  1  0
 13 30  1  0
 13 31  1  0
 14 15  1  0
 14 32  1  1
 15 33  1  0
 15 34  1  0
 15 35  1  0
M  END
>  <i_m_ct_stereo_status>  (15) 
1

>  <s_m_source_file>  (15) 
/var/tmp/pbs.5076255.sched01/tmpuvpulguu/0mmv31ww_.sdf

>  <i_m_source_file_index>  (15) 
7

>  <i_lp_mmshare_version>  (15) 
48012

>  <i_f3d_flags>  (15) 
1

>  <s_epik_input>  (15) 
W0NIM11bQ0BdMTJbQ0hdPUMoW0NIM10pW0NASF0zW0NAQEhdKFtDSDJdW0NASF0yW0NIM10pQyhPMSk9W0NIXVtDQEhdM1tDSDNd

>  <s_epik_cmdline>  (15) 
J2VwaWtfcHl0aG9uJywgJy1waHQnLCAnMi4wJywgJy1waCcsICc3LjAnLCAnLXRuJywgJzgnLCAnLW1hJywgJzIwMCcsICctaW1hZScsICc8aW5maWxlLm1hZT4nLCAnLW9tYWUnLCAnPG91dGZpbGUubWFlPic=

>  <r_lp_tautomer_probability>  (15) 
1

>  <r_epik_Ionization_Penalty>  (15) 
0

>  <r_epik_Ionization_Penalty_Charging>  (15) 
0

>  <r_epik_Ionization_Penalty_Neutral>  (15) 
0

>  <r_epik_State_Penalty>  (15) 
-0

>  <r_epik_Charging_Adjusted_Penalty>  (15) 
0

>  <i_epik_Tot_Q>  (15) 
0

>  <i_epik_Tot_abs_Q>  (15) 
0

>  <s_lp_Force_Field>  (15) 
OPLS3e

>  <r_lp_Energy>  (15) 
42.4509

>  <b_lp_Chiralities_Consistent>  (15) 
1

>  <s_lp_Variant>  (15) 
3:0-1

>  <s_i_glide_gridfile>  (15) 
pfpi4k_grid

>  <i_i_glide_lignum>  (15) 
7

>  <i_i_glide_rotatable_bonds>  (15) 
0

>  <r_i_docking_score>  (15) 
-3.78441

>  <r_i_glide_ligand_efficiency>  (15) 
-0.252294

>  <r_i_glide_ligand_efficiency_sa>  (15) 
-0.622211

>  <r_i_glide_ligand_efficiency_ln>  (15) 
-1.02059

>  <r_i_glide_gscore>  (15) 
-3.78441

>  <r_i_glide_lipo>  (15) 
-0.724218

>  <r_i_glide_hbond>  (15) 
-0.115778

>  <r_i_glide_metal>  (15) 
-0

>  <r_i_glide_rewards>  (15) 
-2.01608

>  <r_i_glide_evdw>  (15) 
-15.5208

>  <r_i_glide_ecoul>  (15) 
-1.01529

>  <r_i_glide_erotb>  (15) 
0

>  <r_i_glide_esite>  (15) 
0

>  <r_i_glide_emodel>  (15) 
-21.1006

>  <r_i_glide_energy>  (15) 
-16.5361

>  <r_i_glide_einternal>  (15) 
0

>  <r_i_glide_intrahb_reward>  (15) 
-0

>  <i_i_glide_confnum>  (15) 
1

>  <i_i_glide_posenum>  (15) 
19

>  <r_i_glide_eff_state_penalty>  (15) 
0

>  <ligand_id>  (15) 
3

>  <original_smiles>  (15) 
CC1=CC2(C)OC3=CC(C)C1C3CC2C

>  <smiles>  (15) 
[H]C1=C2OC3(C([H])([H])[H])C([H])=C(C([H])([H])[H])C([H])(C1([H])C([H])([H])[H])C2([H])C([H])([H])C3([H])C([H])([H])[H]

$$$$
3:0:2
     RDKit          3D

 35 37  0  0  1  0  0  0  0  0999 V2000
    2.8151   -2.9012    0.9604 C   0  0  0  0  0  0  0  0  0  0  0  0
    3.7237   -2.6740   -0.2368 C   0  0  0  0  0  0  0  0  0  0  0  0
    3.5276   -1.6522   -1.1022 C   0  0  0  0  0  0  0  0  0  0  0  0
    4.2591   -1.3379   -2.4268 C   0  0  1  0  0  0  0  0  0  0  0  0
    3.8740    0.0007   -3.0211 C   0  0  0  0  0  0  0  0  0  0  0  0
    5.6803   -1.2567   -2.2259 O   0  0  0  0  0  0  0  0  0  0  0  0
    6.1948   -2.4261   -1.7178 C   0  0  0  0  0  0  0  0  0  0  0  0
    6.7957   -2.3602   -0.5226 C   0  0  0  0  0  0  0  0  0  0  0  0
    6.1508   -3.4163    0.3442 C   0  0  1  0  0  0  0  0  0  0  0  0
    5.9802   -2.9525    1.7782 C   0  0  0  0  0  0  0  0  0  0  0  0
    4.8373   -3.7407   -0.4224 C   0  0  2  0  0  0  0  0  0  0  0  0
    5.3657   -3.6523   -1.8484 C   0  0  1  0  0  0  0  0  0  0  0  0
    4.3752   -3.6999   -2.9949 C   0  0  0  0  0  0  0  0  0  0  0  0
    3.9345   -2.3581   -3.4984 C   0  0  1  0  0  0  0  0  0  0  0  0
    2.4399   -2.4301   -3.8905 C   0  0  0  0  0  0  0  0  0  0  0  0
    2.3821   -3.9000    0.9136 H   0  0  0  0  0  0  0  0  0  0  0  0
    1.9880   -2.1885    0.9282 H   0  0  0  0  0  0  0  0  0  0  0  0
    3.3171   -2.7788    1.9205 H   0  0  0  0  0  0  0  0  0  0  0  0
    2.7173   -0.9713   -0.8735 H   0  0  0  0  0  0  0  0  0  0  0  0
    2.7949    0.1062   -3.0719 H   0  0  0  0  0  0  0  0  0  0  0  0
    4.3445    0.2701   -3.9642 H   0  0  0  0  0  0  0  0  0  0  0  0
    4.2171    0.7523   -2.3106 H   0  0  0  0  0  0  0  0  0  0  0  0
    7.1793   -1.4635   -0.0838 H   0  0  0  0  0  0  0  0  0  0  0  0
    6.8213   -4.2764    0.3357 H   0  0  0  0  0  0  0  0  0  0  0  0
    6.9936   -2.7894    2.1028 H   0  0  0  0  0  0  0  0  0  0  0  0
    5.5096   -3.7181    2.4051 H   0  0  0  0  0  0  0  0  0  0  0  0
    5.4480   -2.0068    1.8841 H   0  0  0  0  0  0  0  0  0  0  0  0
    4.4618   -4.7324   -0.1852 H   0  0  0  0  0  0  0  0  0  0  0  0
    6.0288   -4.4744   -2.0098 H   0  0  0  0  0  0  0  0  0  0  0  0
    4.7795   -4.2655   -3.8257 H   0  0  0  0  0  0  0  0  0  0  0  0
    3.4905   -4.2444   -2.6333 H   0  0  0  0  0  0  0  0  0  0  0  0
    4.5014   -2.0819   -4.3796 H   0  0  0  0  0  0  0  0  0  0  0  0
    1.7675   -2.6588   -3.0477 H   0  0  0  0  0  0  0  0  0  0  0  0
    2.2919   -3.1929   -4.6432 H   0  0  0  0  0  0  0  0  0  0  0  0
    2.1161   -1.4819   -4.3158 H   0  0  0  0  0  0  0  0  0  0  0  0
  1  2  1  0
  1 16  1  0
  1 17  1  0
  1 18  1  0
  2 11  1  0
  2  3  2  0
  3  4  1  0
  3 19  1  0
  4 14  1  0
  4  5  1  6
  4  6  1  0
  5 20  1  0
  5 21  1  0
  5 22  1  0
  6  7  1  0
  7 12  1  0
  7  8  2  0
  8  9  1  0
  8 23  1  0
  9 10  1  0
  9 11  1  0
  9 24  1  1
 10 25  1  0
 10 26  1  0
 10 27  1  0
 11 12  1  0
 11 28  1  1
 12 13  1  0
 12 29  1  6
 13 14  1  0
 13 30  1  0
 13 31  1  0
 14 15  1  0
 14 32  1  6
 15 33  1  0
 15 34  1  0
 15 35  1  0
M  END
>  <i_m_ct_stereo_status>  (16) 
1

>  <s_m_source_file>  (16) 
/var/tmp/pbs.5076255.sched01/tmpuvpulguu/0mmv31ww_.sdf

>  <i_m_source_file_index>  (16) 
7

>  <i_lp_mmshare_version>  (16) 
48012

>  <i_f3d_flags>  (16) 
1

>  <s_epik_input>  (16) 
W0NIM11bQ0BdMTJbQ0hdPUMoW0NIM10pW0NASF0zW0NAQEhdKFtDSDJdW0NASF0yW0NIM10pQyhPMSk9W0NIXVtDQEhdM1tDSDNd

>  <s_epik_cmdline>  (16) 
J2VwaWtfcHl0aG9uJywgJy1waHQnLCAnMi4wJywgJy1waCcsICc3LjAnLCAnLXRuJywgJzgnLCAnLW1hJywgJzIwMCcsICctaW1hZScsICc8aW5maWxlLm1hZT4nLCAnLW9tYWUnLCAnPG91dGZpbGUubWFlPic=

>  <r_lp_tautomer_probability>  (16) 
1

>  <r_epik_Ionization_Penalty>  (16) 
0

>  <r_epik_Ionization_Penalty_Charging>  (16) 
0

>  <r_epik_Ionization_Penalty_Neutral>  (16) 
0

>  <r_epik_State_Penalty>  (16) 
-0

>  <r_epik_Charging_Adjusted_Penalty>  (16) 
0

>  <i_epik_Tot_Q>  (16) 
0

>  <i_epik_Tot_abs_Q>  (16) 
0

>  <s_lp_Force_Field>  (16) 
OPLS3e

>  <r_lp_Energy>  (16) 
42.4509

>  <b_lp_Chiralities_Consistent>  (16) 
1

>  <s_lp_Variant>  (16) 
3:0-1

>  <s_i_glide_gridfile>  (16) 
pfpi4k_grid

>  <i_i_glide_lignum>  (16) 
7

>  <i_i_glide_rotatable_bonds>  (16) 
0

>  <r_i_docking_score>  (16) 
-3.21389

>  <r_i_glide_ligand_efficiency>  (16) 
-0.214259

>  <r_i_glide_ligand_efficiency_sa>  (16) 
-0.528409

>  <r_i_glide_ligand_efficiency_ln>  (16) 
-0.866732

>  <r_i_glide_gscore>  (16) 
-3.21389

>  <r_i_glide_lipo>  (16) 
-0.722635

>  <r_i_glide_hbond>  (16) 
-0.0324682

>  <r_i_glide_metal>  (16) 
-0

>  <r_i_glide_rewards>  (16) 
-2.01608

>  <r_i_glide_evdw>  (16) 
-4.60386

>  <r_i_glide_ecoul>  (16) 
-1.41673

>  <r_i_glide_erotb>  (16) 
0

>  <r_i_glide_esite>  (16) 
0

>  <r_i_glide_emodel>  (16) 
-8.81027

>  <r_i_glide_energy>  (16) 
-6.02059

>  <r_i_glide_einternal>  (16) 
0

>  <r_i_glide_intrahb_reward>  (16) 
-0

>  <i_i_glide_confnum>  (16) 
2

>  <i_i_glide_posenum>  (16) 
2

>  <r_i_glide_eff_state_penalty>  (16) 
0

>  <ligand_id>  (16) 
3

>  <original_smiles>  (16) 
CC1=CC2(C)OC3=CC(C)C1C3CC2C

>  <smiles>  (16) 
[H]C1=C2OC3(C([H])([H])[H])C([H])=C(C([H])([H])[H])C([H])(C1([H])C([H])([H])[H])C2([H])C([H])([H])C3([H])C([H])([H])[H]

$$$$
5:1:0
     RDKit          3D

 48 51  0  0  1  0  0  0  0  0999 V2000
   -1.1600   -8.1165    4.4867 C   0  0  0  0  0  0  0  0  0  0  0  0
    0.1553   -8.0302    3.7097 C   0  0  1  0  0  0  0  0  0  0  0  0
    1.1215   -9.2217    4.0377 C   0  0  0  0  0  0  0  0  0  0  0  0
    2.4628   -9.1171    3.2337 C   0  0  1  0  0  0  0  0  0  0  0  0
    2.0642   -9.0744    1.7609 C   0  0  0  0  0  0  0  0  0  0  0  0
    1.3291   -7.7481    1.6978 C   0  0  1  0  0  0  0  0  0  0  0  0
   -0.0885   -7.9806    2.2068 C   0  0  0  0  0  0  0  0  0  0  0  0
    2.0306   -6.8095    2.7812 C   0  0  1  0  0  0  0  0  0  0  0  0
    2.5278   -5.3852    2.3258 C   0  0  0  0  0  0  0  0  0  0  0  0
    2.7050   -5.1665    0.4961 S   0  0  0  0  0  0  0  0  0  0  0  0
    3.8006   -6.0712    0.0922 O   0  0  0  0  0  0  0  0  0  0  0  0
    1.3822   -5.4381   -0.0426 O   0  0  0  0  0  0  0  0  0  0  0  0
    3.1561   -3.6268    0.3348 N   0  0  0  0  0  0  0  0  0  0  0  0
    3.2452   -2.9787   -0.8756 C   0  0  0  0  0  0  0  0  0  0  0  0
    2.5180   -3.3622   -2.0149 C   0  0  0  0  0  0  0  0  0  0  0  0
    2.6421   -2.6392   -3.2001 C   0  0  0  0  0  0  0  0  0  0  0  0
    3.5042   -1.5353   -3.2229 C   0  0  0  0  0  0  0  0  0  0  0  0
    4.2465   -1.1574   -2.1545 N   0  0  0  0  0  0  0  0  0  0  0  0
    4.0977   -1.8693   -1.0073 C   0  0  0  0  0  0  0  0  0  0  0  0
    0.8934   -6.6893    3.8564 C   0  0  0  0  0  0  0  0  0  0  0  0
    3.1550   -7.7400    3.4124 C   0  0  0  0  0  0  0  0  0  0  0  0
    3.5490   -7.4823    4.8928 C   0  0  0  0  0  0  0  0  0  0  0  0
    4.5134   -7.6845    2.6572 C   0  0  0  0  0  0  0  0  0  0  0  0
   -0.9550   -8.1062    5.5567 H   0  0  0  0  0  0  0  0  0  0  0  0
   -1.6786   -9.0510    4.2650 H   0  0  0  0  0  0  0  0  0  0  0  0
   -1.8370   -7.2923    4.2543 H   0  0  0  0  0  0  0  0  0  0  0  0
    1.3234   -9.2750    5.1084 H   0  0  0  0  0  0  0  0  0  0  0  0
    0.6277  -10.1613    3.7759 H   0  0  0  0  0  0  0  0  0  0  0  0
    3.1338   -9.9595    3.4266 H   0  0  0  0  0  0  0  0  0  0  0  0
    2.9073   -9.0579    1.0818 H   0  0  0  0  0  0  0  0  0  0  0  0
    1.4404   -9.9112    1.4524 H   0  0  0  0  0  0  0  0  0  0  0  0
    1.2830   -7.5056    0.6390 H   0  0  0  0  0  0  0  0  0  0  0  0
   -0.5537   -8.8845    1.8120 H   0  0  0  0  0  0  0  0  0  0  0  0
   -0.7264   -7.1393    1.9457 H   0  0  0  0  0  0  0  0  0  0  0  0
    1.8440   -4.5970    2.6305 H   0  0  0  0  0  0  0  0  0  0  0  0
    3.4812   -5.1177    2.7644 H   0  0  0  0  0  0  0  0  0  0  0  0
    1.8306   -4.2023   -2.0531 H   0  0  0  0  0  0  0  0  0  0  0  0
    2.0558   -2.9188   -4.0730 H   0  0  0  0  0  0  0  0  0  0  0  0
    3.6121   -0.9423   -4.1110 H   0  0  0  0  0  0  0  0  0  0  0  0
    4.7024   -1.5344   -0.1753 H   0  0  0  0  0  0  0  0  0  0  0  0
    0.2305   -5.8566    3.6119 H   0  0  0  0  0  0  0  0  0  0  0  0
    1.2099   -6.4993    4.8813 H   0  0  0  0  0  0  0  0  0  0  0  0
    3.8381   -6.4405    5.0443 H   0  0  0  0  0  0  0  0  0  0  0  0
    4.4092   -8.1027    5.1577 H   0  0  0  0  0  0  0  0  0  0  0  0
    2.7759   -7.7292    5.6216 H   0  0  0  0  0  0  0  0  0  0  0  0
    5.0669   -6.7748    2.9042 H   0  0  0  0  0  0  0  0  0  0  0  0
    4.3992   -7.7155    1.5822 H   0  0  0  0  0  0  0  0  0  0  0  0
    5.1492   -8.5382    2.9158 H   0  0  0  0  0  0  0  0  0  0  0  0
  2  1  1  1
  1 24  1  0
  1 25  1  0
  1 26  1  0
  2  7  1  0
  2 20  1  0
  2  3  1  0
  3  4  1  0
  3 27  1  0
  3 28  1  0
  4 21  1  0
  4  5  1  0
  4 29  1  6
  5  6  1  0
  5 30  1  0
  5 31  1  0
  6  7  1  0
  6  8  1  0
  6 32  1  6
  7 33  1  0
  7 34  1  0
  8  9  1  6
  8 20  1  0
  8 21  1  0
  9 10  1  0
  9 35  1  0
  9 36  1  0
 10 11  2  0
 10 12  2  0
 10 13  1  0
 13 14  1  0
 14 19  1  0
 14 15  2  0
 15 16  1  0
 15 37  1  0
 16 17  2  0
 16 38  1  0
 17 18  1  0
 17 39  1  0
 18 19  2  0
 19 40  1  0
 20 41  1  0
 20 42  1  0
 21 22  1  0
 21 23  1  0
 22 43  1  0
 22 44  1  0
 22 45  1  0
 23 46  1  0
 23 47  1  0
 23 48  1  0
M  CHG  1  13  -1
M  END
>  <i_m_ct_stereo_status>  (17) 
1

>  <s_m_source_file>  (17) 
/var/tmp/pbs.5076255.sched01/tmpuvpulguu/0mmv31ww_.sdf

>  <i_m_source_file_index>  (17) 
10

>  <i_lp_mmshare_version>  (17) 
48012

>  <i_f3d_flags>  (17) 
0

>  <s_epik_input>  (17) 
W0NIM11bQ0BAXTEyW0NIMl1bQ0BIXTNbQ0gyXVtDQEBIXShbQ0gyXTEpW0NAQF0oW0NIMl0yKShDMyhbQ0gzXSlbQ0gzXSlbQ0gyXVMoPU8pKD1PKVtOSF1jNFtjSF1bY0hdW2NIXW5bY0hdNA==

>  <s_epik_cmdline>  (17) 
J2VwaWtfcHl0aG9uJywgJy1waHQnLCAnMi4wJywgJy1waCcsICc3LjAnLCAnLXRuJywgJzgnLCAnLW1hJywgJzIwMCcsICctaW1hZScsICc8aW5maWxlLm1hZT4nLCAnLW9tYWUnLCAnPG91dGZpbGUubWFlPic=

>  <r_epik_Ionization_Penalty>  (17) 
1.10305

>  <r_epik_Ionization_Penalty_Charging>  (17) 
0.905938

>  <r_epik_Ionization_Penalty_Neutral>  (17) 
0.197111

>  <r_epik_State_Penalty>  (17) 
0.912119

>  <r_epik_Charging_Adjusted_Penalty>  (17) 
1.81806

>  <i_epik_Tot_Q>  (17) 
-1

>  <i_epik_Tot_abs_Q>  (17) 
1

>  <s_lp_Force_Field>  (17) 
OPLS3e

>  <r_lp_Energy>  (17) 
51.3689

>  <b_lp_Chiralities_Consistent>  (17) 
1

>  <s_lp_Variant>  (17) 
5:0-2

>  <s_i_glide_gridfile>  (17) 
pfpi4k_grid

>  <i_i_glide_lignum>  (17) 
10

>  <i_i_glide_rotatable_bonds>  (17) 
4

>  <r_i_docking_score>  (17) 
-3.15784

>  <r_i_glide_ligand_efficiency>  (17) 
-0.137297

>  <r_i_glide_ligand_efficiency_sa>  (17) 
-0.390455

>  <r_i_glide_ligand_efficiency_ln>  (17) 
-0.763594

>  <r_i_glide_gscore>  (17) 
-3.15784

>  <r_i_glide_lipo>  (17) 
-0.389819

>  <r_i_glide_hbond>  (17) 
0

>  <r_i_glide_metal>  (17) 
-0

>  <r_i_glide_rewards>  (17) 
-1.13544

>  <r_i_glide_evdw>  (17) 
-26.7142

>  <r_i_glide_ecoul>  (17) 
-4.44285

>  <r_i_glide_erotb>  (17) 
0.508479

>  <r_i_glide_esite>  (17) 
-0.138924

>  <r_i_glide_emodel>  (17) 
-33.2879

>  <r_i_glide_energy>  (17) 
-31.157

>  <r_i_glide_einternal>  (17) 
6.49333

>  <r_i_glide_intrahb_reward>  (17) 
-0

>  <i_i_glide_confnum>  (17) 
3

>  <i_i_glide_posenum>  (17) 
30

>  <r_i_glide_eff_state_penalty>  (17) 
0

>  <ligand_id>  (17) 
5

>  <original_smiles>  (17) 
CC12CC3CC(C1)C(CS(=O)(=O)Nc1cccnc1)(C2)C3(C)C

>  <smiles>  (17) 
[H]c1nc([H])c([N-]S(=O)(=O)C([H])([H])C23C([H])([H])C4(C([H])([H])[H])C([H])([H])C([H])(C([H])([H])C2([H])C4([H])[H])C3(C([H])([H])[H])C([H])([H])[H])c([H])c1[H]

$$$$
5:1:1
     RDKit          3D

 48 51  0  0  1  0  0  0  0  0999 V2000
   -1.7561   -9.0228    2.4851 C   0  0  0  0  0  0  0  0  0  0  0  0
   -0.3757   -8.6599    3.0503 C   0  0  1  0  0  0  0  0  0  0  0  0
   -0.4447   -8.2529    4.5572 C   0  0  0  0  0  0  0  0  0  0  0  0
    0.9754   -7.8686    5.1080 C   0  0  1  0  0  0  0  0  0  0  0  0
    1.8900   -9.0820    4.8611 C   0  0  0  0  0  0  0  0  0  0  0  0
    1.9376   -9.0445    3.3260 C   0  0  1  0  0  0  0  0  0  0  0  0
    0.6519   -9.7774    2.8856 C   0  0  0  0  0  0  0  0  0  0  0  0
    1.7550   -7.5076    2.8955 C   0  0  1  0  0  0  0  0  0  0  0  0
    2.8965   -7.0084    1.9429 C   0  0  0  0  0  0  0  0  0  0  0  0
    2.6550   -5.3535    1.1152 S   0  0  0  0  0  0  0  0  0  0  0  0
    1.4430   -5.4819    0.3293 O   0  0  0  0  0  0  0  0  0  0  0  0
    2.6476   -4.2948    2.1285 O   0  0  0  0  0  0  0  0  0  0  0  0
    3.9628   -5.1594    0.2160 N   0  0  0  0  0  0  0  0  0  0  0  0
    4.2342   -4.0250   -0.4416 C   0  0  0  0  0  0  0  0  0  0  0  0
    3.2290   -3.0996   -0.8161 C   0  0  0  0  0  0  0  0  0  0  0  0
    3.5469   -2.0024   -1.6099 C   0  0  0  0  0  0  0  0  0  0  0  0
    4.8908   -1.7975   -1.9560 C   0  0  0  0  0  0  0  0  0  0  0  0
    5.8972   -2.5716   -1.5068 N   0  0  0  0  0  0  0  0  0  0  0  0
    5.5741   -3.6464   -0.7648 C   0  0  0  0  0  0  0  0  0  0  0  0
    0.3523   -7.5696    2.2389 C   0  0  0  0  0  0  0  0  0  0  0  0
    1.6243   -6.7413    4.2712 C   0  0  0  0  0  0  0  0  0  0  0  0
    0.7456   -5.4607    4.3506 C   0  0  0  0  0  0  0  0  0  0  0  0
    3.0355   -6.3826    4.8306 C   0  0  0  0  0  0  0  0  0  0  0  0
   -2.4457   -8.1797    2.5375 H   0  0  0  0  0  0  0  0  0  0  0  0
   -2.1981   -9.8459    3.0464 H   0  0  0  0  0  0  0  0  0  0  0  0
   -1.6952   -9.3391    1.4451 H   0  0  0  0  0  0  0  0  0  0  0  0
   -1.1471   -7.4428    4.6995 H   0  0  0  0  0  0  0  0  0  0  0  0
   -0.8588   -9.0688    5.1491 H   0  0  0  0  0  0  0  0  0  0  0  0
    0.9336   -7.6222    6.1752 H   0  0  0  0  0  0  0  0  0  0  0  0
    2.8726   -8.9621    5.3112 H   0  0  0  0  0  0  0  0  0  0  0  0
    1.4787  -10.0089    5.2821 H   0  0  0  0  0  0  0  0  0  0  0  0
    2.8321   -9.5376    2.9349 H   0  0  0  0  0  0  0  0  0  0  0  0
    0.4147  -10.6614    3.4792 H   0  0  0  0  0  0  0  0  0  0  0  0
    0.7323  -10.1046    1.8522 H   0  0  0  0  0  0  0  0  0  0  0  0
    3.8673   -6.9997    2.4085 H   0  0  0  0  0  0  0  0  0  0  0  0
    2.9929   -7.7083    1.1202 H   0  0  0  0  0  0  0  0  0  0  0  0
    2.1911   -3.2496   -0.5506 H   0  0  0  0  0  0  0  0  0  0  0  0
    2.7700   -1.3467   -1.9710 H   0  0  0  0  0  0  0  0  0  0  0  0
    5.1748   -0.9675   -2.5868 H   0  0  0  0  0  0  0  0  0  0  0  0
    6.3920   -4.2708   -0.4314 H   0  0  0  0  0  0  0  0  0  0  0  0
    0.4442   -7.8821    1.1975 H   0  0  0  0  0  0  0  0  0  0  0  0
   -0.1863   -6.6261    2.2209 H   0  0  0  0  0  0  0  0  0  0  0  0
    0.9713   -4.7331    3.6191 H   0  0  0  0  0  0  0  0  0  0  0  0
    0.8725   -5.0026    5.3258 H   0  0  0  0  0  0  0  0  0  0  0  0
   -0.3067   -5.6590    4.2288 H   0  0  0  0  0  0  0  0  0  0  0  0
    3.4370   -5.5090    4.3266 H   0  0  0  0  0  0  0  0  0  0  0  0
    3.8048   -7.1629    4.7085 H   0  0  0  0  0  0  0  0  0  0  0  0
    3.0020   -6.1512    5.8984 H   0  0  0  0  0  0  0  0  0  0  0  0
  2  1  1  6
  1 24  1  0
  1 25  1  0
  1 26  1  0
  2  7  1  0
  2 20  1  0
  2  3  1  0
  3  4  1  0
  3 27  1  0
  3 28  1  0
  4 21  1  0
  4  5  1  0
  4 29  1  1
  5  6  1  0
  5 30  1  0
  5 31  1  0
  6  7  1  0
  6  8  1  0
  6 32  1  6
  7 33  1  0
  7 34  1  0
  8  9  1  6
  8 20  1  0
  8 21  1  0
  9 10  1  0
  9 35  1  0
  9 36  1  0
 10 11  2  0
 10 12  2  0
 10 13  1  0
 13 14  1  0
 14 19  1  0
 14 15  2  0
 15 16  1  0
 15 37  1  0
 16 17  2  0
 16 38  1  0
 17 18  1  0
 17 39  1  0
 18 19  2  0
 19 40  1  0
 20 41  1  0
 20 42  1  0
 21 22  1  0
 21 23  1  0
 22 43  1  0
 22 44  1  0
 22 45  1  0
 23 46  1  0
 23 47  1  0
 23 48  1  0
M  CHG  1  13  -1
M  END
>  <i_m_ct_stereo_status>  (18) 
1

>  <s_m_source_file>  (18) 
/var/tmp/pbs.5076255.sched01/tmpuvpulguu/0mmv31ww_.sdf

>  <i_m_source_file_index>  (18) 
10

>  <i_lp_mmshare_version>  (18) 
48012

>  <i_f3d_flags>  (18) 
0

>  <s_epik_input>  (18) 
W0NIM11bQ0BAXTEyW0NIMl1bQ0BIXTNbQ0gyXVtDQEBIXShbQ0gyXTEpW0NAQF0oW0NIMl0yKShDMyhbQ0gzXSlbQ0gzXSlbQ0gyXVMoPU8pKD1PKVtOSF1jNFtjSF1bY0hdW2NIXW5bY0hdNA==

>  <s_epik_cmdline>  (18) 
J2VwaWtfcHl0aG9uJywgJy1waHQnLCAnMi4wJywgJy1waCcsICc3LjAnLCAnLXRuJywgJzgnLCAnLW1hJywgJzIwMCcsICctaW1hZScsICc8aW5maWxlLm1hZT4nLCAnLW9tYWUnLCAnPG91dGZpbGUubWFlPic=

>  <r_epik_Ionization_Penalty>  (18) 
1.10305

>  <r_epik_Ionization_Penalty_Charging>  (18) 
0.905938

>  <r_epik_Ionization_Penalty_Neutral>  (18) 
0.197111

>  <r_epik_State_Penalty>  (18) 
0.912119

>  <r_epik_Charging_Adjusted_Penalty>  (18) 
1.81806

>  <i_epik_Tot_Q>  (18) 
-1

>  <i_epik_Tot_abs_Q>  (18) 
1

>  <s_lp_Force_Field>  (18) 
OPLS3e

>  <r_lp_Energy>  (18) 
51.3689

>  <b_lp_Chiralities_Consistent>  (18) 
1

>  <s_lp_Variant>  (18) 
5:0-2

>  <s_i_glide_gridfile>  (18) 
pfpi4k_grid

>  <i_i_glide_lignum>  (18) 
10

>  <i_i_glide_rotatable_bonds>  (18) 
4

>  <r_i_docking_score>  (18) 
-3.02957

>  <r_i_glide_ligand_efficiency>  (18) 
-0.131721

>  <r_i_glide_ligand_efficiency_sa>  (18) 
-0.374596

>  <r_i_glide_ligand_efficiency_ln>  (18) 
-0.732578

>  <r_i_glide_gscore>  (18) 
-3.02957

>  <r_i_glide_lipo>  (18) 
-0.32712

>  <r_i_glide_hbond>  (18) 
0

>  <r_i_glide_metal>  (18) 
-0

>  <r_i_glide_rewards>  (18) 
-1.13544

>  <r_i_glide_evdw>  (18) 
-27.8871

>  <r_i_glide_ecoul>  (18) 
-3.64868

>  <r_i_glide_erotb>  (18) 
0.508479

>  <r_i_glide_esite>  (18) 
-0.133835

>  <r_i_glide_emodel>  (18) 
-36.163

>  <r_i_glide_energy>  (18) 
-31.5358

>  <r_i_glide_einternal>  (18) 
2.34051

>  <r_i_glide_intrahb_reward>  (18) 
-0

>  <i_i_glide_confnum>  (18) 
2

>  <i_i_glide_posenum>  (18) 
34

>  <r_i_glide_eff_state_penalty>  (18) 
0

>  <ligand_id>  (18) 
5

>  <original_smiles>  (18) 
CC12CC3CC(C1)C(CS(=O)(=O)Nc1cccnc1)(C2)C3(C)C

>  <smiles>  (18) 
[H]c1nc([H])c([N-]S(=O)(=O)C([H])([H])C23C([H])([H])C4(C([H])([H])[H])C([H])([H])C([H])(C([H])([H])C2([H])C4([H])[H])C3(C([H])([H])[H])C([H])([H])[H])c([H])c1[H]

$$$$
5:1:2
     RDKit          3D

 48 51  0  0  1  0  0  0  0  0999 V2000
   -1.7913   -9.0263    2.4785 C   0  0  0  0  0  0  0  0  0  0  0  0
   -0.4278   -8.6630    3.0772 C   0  0  1  0  0  0  0  0  0  0  0  0
   -0.5373   -8.2553    4.5816 C   0  0  0  0  0  0  0  0  0  0  0  0
    0.8670   -7.8754    5.1676 C   0  0  1  0  0  0  0  0  0  0  0  0
    1.7837   -9.0907    4.9437 C   0  0  0  0  0  0  0  0  0  0  0  0
    1.8716   -9.0519    3.4102 C   0  0  1  0  0  0  0  0  0  0  0  0
    0.5965   -9.7841    2.9435 C   0  0  0  0  0  0  0  0  0  0  0  0
    1.7040   -7.5135    2.9750 C   0  0  1  0  0  0  0  0  0  0  0  0
    2.8730   -7.0154    2.0396 C   0  0  0  0  0  0  0  0  0  0  0  0
    2.7225   -5.3424    1.2430 S   0  0  0  0  0  0  0  0  0  0  0  0
    1.5629   -5.4554    0.3484 O   0  0  0  0  0  0  0  0  0  0  0  0
    2.6309   -4.2974    2.2714 O   0  0  0  0  0  0  0  0  0  0  0  0
    4.0860   -5.1340    0.4235 N   0  0  0  0  0  0  0  0  0  0  0  0
    4.3817   -3.9541   -0.1101 C   0  0  0  0  0  0  0  0  0  0  0  0
    5.3776   -3.0644    0.4133 C   0  0  0  0  0  0  0  0  0  0  0  0
    5.5883   -1.8216   -0.2298 C   0  0  0  0  0  0  0  0  0  0  0  0
    4.7909   -1.5027   -1.3409 C   0  0  0  0  0  0  0  0  0  0  0  0
    3.7933   -2.2814   -1.7796 N   0  0  0  0  0  0  0  0  0  0  0  0
    3.5919   -3.4530   -1.1587 C   0  0  0  0  0  0  0  0  0  0  0  0
    0.3189   -7.5762    2.2822 C   0  0  0  0  0  0  0  0  0  0  0  0
    1.5367   -6.7419    4.3411 C   0  0  0  0  0  0  0  0  0  0  0  0
    0.6517   -5.4661    4.4042 C   0  0  0  0  0  0  0  0  0  0  0  0
    2.9362   -6.3948    4.9391 C   0  0  0  0  0  0  0  0  0  0  0  0
   -2.4805   -8.1827    2.5143 H   0  0  0  0  0  0  0  0  0  0  0  0
   -2.2506   -9.8450    3.0321 H   0  0  0  0  0  0  0  0  0  0  0  0
   -1.7082   -9.3453    1.4411 H   0  0  0  0  0  0  0  0  0  0  0  0
   -1.2427   -7.4442    4.7049 H   0  0  0  0  0  0  0  0  0  0  0  0
   -0.9697   -9.0642    5.1645 H   0  0  0  0  0  0  0  0  0  0  0  0
    0.7998   -7.6256    6.2322 H   0  0  0  0  0  0  0  0  0  0  0  0
    2.7546   -8.9718    5.4193 H   0  0  0  0  0  0  0  0  0  0  0  0
    1.3585  -10.0147    5.3562 H   0  0  0  0  0  0  0  0  0  0  0  0
    2.7711   -9.5493    3.0433 H   0  0  0  0  0  0  0  0  0  0  0  0
    0.3398  -10.6665    3.5331 H   0  0  0  0  0  0  0  0  0  0  0  0
    0.6970  -10.1150    1.9130 H   0  0  0  0  0  0  0  0  0  0  0  0
    3.8313   -7.0336    2.5366 H   0  0  0  0  0  0  0  0  0  0  0  0
    2.9774   -7.7221    1.2228 H   0  0  0  0  0  0  0  0  0  0  0  0
    5.9496   -3.3292    1.2923 H   0  0  0  0  0  0  0  0  0  0  0  0
    6.3617   -1.1510    0.1033 H   0  0  0  0  0  0  0  0  0  0  0  0
    4.9429   -0.5807   -1.8914 H   0  0  0  0  0  0  0  0  0  0  0  0
    2.7607   -4.0310   -1.5302 H   0  0  0  0  0  0  0  0  0  0  0  0
    0.4370   -7.8966    1.2454 H   0  0  0  0  0  0  0  0  0  0  0  0
   -0.2197   -6.6330    2.2474 H   0  0  0  0  0  0  0  0  0  0  0  0
    0.9002   -4.7368    3.6622 H   0  0  0  0  0  0  0  0  0  0  0  0
    0.7627   -5.0102    5.3806 H   0  0  0  0  0  0  0  0  0  0  0  0
   -0.3945   -5.6729    4.2607 H   0  0  0  0  0  0  0  0  0  0  0  0
    3.3524   -5.5232    4.4429 H   0  0  0  0  0  0  0  0  0  0  0  0
    3.7056   -7.1769    4.8360 H   0  0  0  0  0  0  0  0  0  0  0  0
    2.8770   -6.1607    6.0038 H   0  0  0  0  0  0  0  0  0  0  0  0
  2  1  1  6
  1 24  1  0
  1 25  1  0
  1 26  1  0
  2  7  1  0
  2 20  1  0
  2  3  1  0
  3  4  1  0
  3 27  1  0
  3 28  1  0
  4 21  1  0
  4  5  1  0
  4 29  1  1
  5  6  1  0
  5 30  1  0
  5 31  1  0
  6  7  1  0
  6  8  1  0
  6 32  1  1
  7 33  1  0
  7 34  1  0
  8  9  1  6
  8 20  1  0
  8 21  1  0
  9 10  1  0
  9 35  1  0
  9 36  1  0
 10 11  2  0
 10 12  2  0
 10 13  1  0
 13 14  1  0
 14 19  1  0
 14 15  2  0
 15 16  1  0
 15 37  1  0
 16 17  2  0
 16 38  1  0
 17 18  1  0
 17 39  1  0
 18 19  2  0
 19 40  1  0
 20 41  1  0
 20 42  1  0
 21 22  1  0
 21 23  1  0
 22 43  1  0
 22 44  1  0
 22 45  1  0
 23 46  1  0
 23 47  1  0
 23 48  1  0
M  CHG  1  13  -1
M  END
>  <i_m_ct_stereo_status>  (19) 
1

>  <s_m_source_file>  (19) 
/var/tmp/pbs.5076255.sched01/tmpuvpulguu/0mmv31ww_.sdf

>  <i_m_source_file_index>  (19) 
10

>  <i_lp_mmshare_version>  (19) 
48012

>  <i_f3d_flags>  (19) 
0

>  <s_epik_input>  (19) 
W0NIM11bQ0BAXTEyW0NIMl1bQ0BIXTNbQ0gyXVtDQEBIXShbQ0gyXTEpW0NAQF0oW0NIMl0yKShDMyhbQ0gzXSlbQ0gzXSlbQ0gyXVMoPU8pKD1PKVtOSF1jNFtjSF1bY0hdW2NIXW5bY0hdNA==

>  <s_epik_cmdline>  (19) 
J2VwaWtfcHl0aG9uJywgJy1waHQnLCAnMi4wJywgJy1waCcsICc3LjAnLCAnLXRuJywgJzgnLCAnLW1hJywgJzIwMCcsICctaW1hZScsICc8aW5maWxlLm1hZT4nLCAnLW9tYWUnLCAnPG91dGZpbGUubWFlPic=

>  <r_epik_Ionization_Penalty>  (19) 
1.10305

>  <r_epik_Ionization_Penalty_Charging>  (19) 
0.905938

>  <r_epik_Ionization_Penalty_Neutral>  (19) 
0.197111

>  <r_epik_State_Penalty>  (19) 
0.912119

>  <r_epik_Charging_Adjusted_Penalty>  (19) 
1.81806

>  <i_epik_Tot_Q>  (19) 
-1

>  <i_epik_Tot_abs_Q>  (19) 
1

>  <s_lp_Force_Field>  (19) 
OPLS3e

>  <r_lp_Energy>  (19) 
51.3689

>  <b_lp_Chiralities_Consistent>  (19) 
1

>  <s_lp_Variant>  (19) 
5:0-2

>  <s_i_glide_gridfile>  (19) 
pfpi4k_grid

>  <i_i_glide_lignum>  (19) 
10

>  <i_i_glide_rotatable_bonds>  (19) 
4

>  <r_i_docking_score>  (19) 
-2.77017

>  <r_i_glide_ligand_efficiency>  (19) 
-0.120442

>  <r_i_glide_ligand_efficiency_sa>  (19) 
-0.342522

>  <r_i_glide_ligand_efficiency_ln>  (19) 
-0.669852

>  <r_i_glide_gscore>  (19) 
-2.77017

>  <r_i_glide_lipo>  (19) 
-0.335476

>  <r_i_glide_hbond>  (19) 
0

>  <r_i_glide_metal>  (19) 
-0

>  <r_i_glide_rewards>  (19) 
-1.13544

>  <r_i_glide_evdw>  (19) 
-27.6607

>  <r_i_glide_ecoul>  (19) 
-1.99034

>  <r_i_glide_erotb>  (19) 
0.508479

>  <r_i_glide_esite>  (19) 
-0.12615

>  <r_i_glide_emodel>  (19) 
-31.581

>  <r_i_glide_energy>  (19) 
-29.6511

>  <r_i_glide_einternal>  (19) 
6.24397

>  <r_i_glide_intrahb_reward>  (19) 
-0

>  <i_i_glide_confnum>  (19) 
2

>  <i_i_glide_posenum>  (19) 
8

>  <r_i_glide_eff_state_penalty>  (19) 
0

>  <ligand_id>  (19) 
5

>  <original_smiles>  (19) 
CC12CC3CC(C1)C(CS(=O)(=O)Nc1cccnc1)(C2)C3(C)C

>  <smiles>  (19) 
[H]c1nc([H])c([N-]S(=O)(=O)C([H])([H])C23C([H])([H])C4(C([H])([H])[H])C([H])([H])C([H])(C([H])([H])C2([H])C4([H])[H])C3(C([H])([H])[H])C([H])([H])[H])c([H])c1[H]

$$$$
5:2:0
     RDKit          3D

 49 52  0  0  1  0  0  0  0  0999 V2000
   -1.8060   -9.0209    2.6953 C   0  0  0  0  0  0  0  0  0  0  0  0
   -0.4172   -8.6727    3.2384 C   0  0  1  0  0  0  0  0  0  0  0  0
   -0.4605   -8.2580    4.7429 C   0  0  0  0  0  0  0  0  0  0  0  0
    0.9737   -7.8956    5.2723 C   0  0  1  0  0  0  0  0  0  0  0  0
    1.8666   -9.1122    5.0135 C   0  0  0  0  0  0  0  0  0  0  0  0
    1.8896   -9.0794    3.4753 C   0  0  1  0  0  0  0  0  0  0  0  0
    0.5895   -9.8039    3.0630 C   0  0  0  0  0  0  0  0  0  0  0  0
    1.7175   -7.5491    3.0410 C   0  0  1  0  0  0  0  0  0  0  0  0
    2.8398   -7.0659    2.0610 C   0  0  0  0  0  0  0  0  0  0  0  0
    2.5654   -5.4618    1.1364 S   0  0  0  0  0  0  0  0  0  0  0  0
    1.4006   -5.7111    0.2550 O   0  0  0  0  0  0  0  0  0  0  0  0
    2.4209   -4.3598    2.0801 O   0  0  0  0  0  0  0  0  0  0  0  0
    3.8804   -5.2503    0.2744 N   0  0  0  0  0  0  0  0  0  0  0  0
    4.1319   -4.1068   -0.3831 C   0  0  0  0  0  0  0  0  0  0  0  0
    5.4069   -3.8696   -0.9173 C   0  0  0  0  0  0  0  0  0  0  0  0
    5.6593   -2.7515   -1.7125 C   0  0  0  0  0  0  0  0  0  0  0  0
    4.6162   -1.8058   -1.9215 C   0  0  0  0  0  0  0  0  0  0  0  0
    3.4226   -2.0039   -1.3339 N   0  0  0  0  0  0  0  0  0  0  0  0
    3.1545   -3.0750   -0.5794 C   0  0  0  0  0  0  0  0  0  0  0  0
    0.3034   -7.5964    2.4069 C   0  0  0  0  0  0  0  0  0  0  0  0
    1.6264   -6.7932    4.4265 C   0  0  0  0  0  0  0  0  0  0  0  0
    0.7763   -5.4738    4.5070 C   0  0  0  0  0  0  0  0  0  0  0  0
    3.0453   -6.4285    4.9504 C   0  0  0  0  0  0  0  0  0  0  0  0
   -2.4913   -8.1752    2.7657 H   0  0  0  0  0  0  0  0  0  0  0  0
   -2.2477   -9.8397    3.2612 H   0  0  0  0  0  0  0  0  0  0  0  0
   -1.7673   -9.3369    1.6534 H   0  0  0  0  0  0  0  0  0  0  0  0
   -1.1509   -7.4341    4.8850 H   0  0  0  0  0  0  0  0  0  0  0  0
   -0.8749   -9.0660    5.3428 H   0  0  0  0  0  0  0  0  0  0  0  0
    0.9488   -7.6339    6.3331 H   0  0  0  0  0  0  0  0  0  0  0  0
    2.8566   -9.0019    5.4457 H   0  0  0  0  0  0  0  0  0  0  0  0
    1.4520  -10.0317    5.4466 H   0  0  0  0  0  0  0  0  0  0  0  0
    2.7714   -9.5913    3.0751 H   0  0  0  0  0  0  0  0  0  0  0  0
    0.3492  -10.6840    3.6630 H   0  0  0  0  0  0  0  0  0  0  0  0
    0.6410  -10.1351    2.0296 H   0  0  0  0  0  0  0  0  0  0  0  0
    3.8110   -6.9919    2.5286 H   0  0  0  0  0  0  0  0  0  0  0  0
    2.9744   -7.8171    1.2877 H   0  0  0  0  0  0  0  0  0  0  0  0
    6.1606   -4.6221   -0.7090 H   0  0  0  0  0  0  0  0  0  0  0  0
    6.6306   -2.6499   -2.1749 H   0  0  0  0  0  0  0  0  0  0  0  0
    4.7170   -0.9117   -2.5379 H   0  0  0  0  0  0  0  0  0  0  0  0
    2.1581   -3.0955   -0.1906 H   0  0  0  0  0  0  0  0  0  0  0  0
    0.3650   -7.9248    1.3689 H   0  0  0  0  0  0  0  0  0  0  0  0
   -0.2229   -6.6490    2.3939 H   0  0  0  0  0  0  0  0  0  0  0  0
    1.0628   -4.7398    3.7909 H   0  0  0  0  0  0  0  0  0  0  0  0
    0.9097   -5.0234    5.5017 H   0  0  0  0  0  0  0  0  0  0  0  0
   -0.2941   -5.6467    4.3568 H   0  0  0  0  0  0  0  0  0  0  0  0
    3.4427   -5.5576    4.4333 H   0  0  0  0  0  0  0  0  0  0  0  0
    3.8018   -7.2138    4.8218 H   0  0  0  0  0  0  0  0  0  0  0  0
    3.0298   -6.1889    6.0161 H   0  0  0  0  0  0  0  0  0  0  0  0
    2.6554   -1.3271   -1.4754 H   0  0  0  0  0  0  0  0  0  0  0  0
  2  1  1  6
  1 24  1  0
  1 25  1  0
  1 26  1  0
  2  7  1  0
  2 20  1  0
  2  3  1  0
  3  4  1  0
  3 27  1  0
  3 28  1  0
  4 21  1  0
  4  5  1  0
  4 29  1  1
  5  6  1  0
  5 30  1  0
  5 31  1  0
  6  7  1  0
  6  8  1  0
  6 32  1  6
  7 33  1  0
  7 34  1  0
  8  9  1  6
  8 20  1  0
  8 21  1  0
  9 10  1  0
  9 35  1  0
  9 36  1  0
 10 11  2  0
 10 12  2  0
 10 13  1  0
 13 14  1  0
 14 19  1  0
 14 15  2  0
 15 16  1  0
 15 37  1  0
 16 17  2  0
 16 38  1  0
 17 18  1  0
 17 39  1  0
 18 19  2  0
 18 49  1  0
 19 40  1  0
 20 41  1  0
 20 42  1  0
 21 22  1  0
 21 23  1  0
 22 43  1  0
 22 44  1  0
 22 45  1  0
 23 46  1  0
 23 47  1  0
 23 48  1  0
M  CHG  2  13  -1  18   1
M  END
>  <i_m_ct_stereo_status>  (20) 
1

>  <s_m_source_file>  (20) 
/var/tmp/pbs.5076255.sched01/tmpuvpulguu/0mmv31ww_.sdf

>  <i_m_source_file_index>  (20) 
11

>  <i_lp_mmshare_version>  (20) 
48012

>  <i_f3d_flags>  (20) 
0

>  <s_epik_input>  (20) 
W0NIM11bQ0BAXTEyW0NIMl1bQ0BIXTNbQ0gyXVtDQEBIXShbQ0gyXTEpW0NAQF0oW0NIMl0yKShDMyhbQ0gzXSlbQ0gzXSlbQ0gyXVMoPU8pKD1PKVtOSF1jNFtjSF1bY0hdW2NIXW5bY0hdNA==

>  <s_epik_cmdline>  (20) 
J2VwaWtfcHl0aG9uJywgJy1waHQnLCAnMi4wJywgJy1waCcsICc3LjAnLCAnLXRuJywgJzgnLCAnLW1hJywgJzIwMCcsICctaW1hZScsICc8aW5maWxlLm1hZT4nLCAnLW9tYWUnLCAnPG91dGZpbGUubWFlPic=

>  <r_epik_Ionization_Penalty>  (20) 
0.751958

>  <r_epik_Ionization_Penalty_Charging>  (20) 
0.751958

>  <r_epik_Ionization_Penalty_Neutral>  (20) 
0

>  <r_epik_State_Penalty>  (20) 
1.37737

>  <r_epik_Charging_Adjusted_Penalty>  (20) 
2.12932

>  <i_epik_Tot_Q>  (20) 
0

>  <i_epik_Tot_abs_Q>  (20) 
2

>  <s_lp_Force_Field>  (20) 
OPLS3e

>  <r_lp_Energy>  (20) 
50.7729

>  <b_lp_Chiralities_Consistent>  (20) 
1

>  <s_lp_Variant>  (20) 
5:0-3

>  <s_i_glide_gridfile>  (20) 
pfpi4k_grid

>  <i_i_glide_lignum>  (20) 
11

>  <i_i_glide_rotatable_bonds>  (20) 
4

>  <r_i_docking_score>  (20) 
-3.51286

>  <r_i_glide_ligand_efficiency>  (20) 
-0.152733

>  <r_i_glide_ligand_efficiency_sa>  (20) 
-0.434352

>  <r_i_glide_ligand_efficiency_ln>  (20) 
-0.84944

>  <r_i_glide_gscore>  (20) 
-3.51286

>  <r_i_glide_lipo>  (20) 
-0.131439

>  <r_i_glide_hbond>  (20) 
-0.148483

>  <r_i_glide_metal>  (20) 
-0

>  <r_i_glide_rewards>  (20) 
-1.42856

>  <r_i_glide_evdw>  (20) 
-27.278

>  <r_i_glide_ecoul>  (20) 
-4.86669

>  <r_i_glide_erotb>  (20) 
0.505771

>  <r_i_glide_esite>  (20) 
-0.216236

>  <r_i_glide_emodel>  (20) 
-38.5339

>  <r_i_glide_energy>  (20) 
-32.1447

>  <r_i_glide_einternal>  (20) 
2.3705

>  <r_i_glide_intrahb_reward>  (20) 
-0

>  <i_i_glide_confnum>  (20) 
2

>  <i_i_glide_posenum>  (20) 
23

>  <r_i_glide_eff_state_penalty>  (20) 
0

>  <ligand_id>  (20) 
5

>  <original_smiles>  (20) 
CC12CC3CC(C1)C(CS(=O)(=O)Nc1cccnc1)(C2)C3(C)C

>  <smiles>  (20) 
[H]c1c([H])c([H])[n+]([H])c([H])c1[N-]S(=O)(=O)C([H])([H])C12C([H])([H])C3(C([H])([H])[H])C([H])([H])C([H])(C([H])([H])C1([H])C3([H])[H])C2(C([H])([H])[H])C([H])([H])[H]

$$$$
6:0:0
     RDKit          3D

 73 78  0  0  1  0  0  0  0  0999 V2000
    6.2096   -8.5309    2.1259 C   0  0  0  0  0  0  0  0  0  0  0  0
    5.4748   -7.5145    1.2554 C   0  0  0  0  0  0  0  0  0  0  0  0
    4.7965   -7.8819    0.3008 O   0  0  0  0  0  0  0  0  0  0  0  0
    5.5886   -6.2638    1.7129 O   0  0  0  0  0  0  0  0  0  0  0  0
    4.7879   -5.2847    1.1365 C   0  0  0  0  0  0  0  0  0  0  0  0
    3.4866   -5.2378    1.4222 C   0  0  0  0  0  0  0  0  0  0  0  0
    2.5435   -4.9443    0.3368 C   0  0  0  0  0  0  0  0  0  0  0  0
    1.4210   -5.6882    0.1050 C   0  0  0  0  0  0  0  0  0  0  0  0
    0.9105   -6.9276    0.8423 C   0  0  0  0  0  0  0  0  0  0  0  0
    2.0204   -7.4778    1.7371 C   0  0  2  0  0  0  0  0  0  0  0  0
    1.9473   -8.8176    2.4789 C   0  0  2  0  0  0  0  0  0  0  0  0
    2.4864  -10.0454    1.7364 C   0  0  0  0  0  0  0  0  0  0  0  0
    0.6238   -9.1252    3.2031 C   0  0  0  0  0  0  0  0  0  0  0  0
    0.3169   -8.0941    4.3005 C   0  0  0  0  0  0  0  0  0  0  0  0
    1.0257   -6.7241    4.1133 C   0  0  1  0  0  0  0  0  0  0  0  0
    1.4049   -6.2325    5.3977 O   0  0  0  0  0  0  0  0  0  0  0  0
    2.2477   -6.7528    3.1168 C   0  0  1  0  0  0  0  0  0  0  0  0
    2.9784   -8.1002    3.4040 C   0  0  0  0  0  0  0  0  0  0  0  0
    3.9152   -8.4945    4.0661 O   0  0  0  0  0  0  0  0  0  0  0  0
    2.9663   -5.3402    2.8927 C   0  0  2  0  0  0  0  0  0  0  0  0
    1.9080   -4.1900    3.0099 C   0  0  0  0  0  0  0  0  0  0  0  0
    4.0459   -4.8356    3.9435 C   0  0  1  0  0  0  0  0  0  0  0  0
    5.0117   -5.7750    4.6876 C   0  0  0  0  0  0  0  0  0  0  0  0
    4.6898   -3.6246    3.5097 O   0  0  0  0  0  0  0  0  0  0  0  0
    5.8236   -3.6699    2.6423 C   0  0  0  0  0  0  0  0  0  0  0  0
    5.5355   -3.9675    1.1489 C   0  0  1  0  0  0  0  0  0  0  0  0
    6.7516   -4.2044    0.4263 O   0  0  0  0  0  0  0  0  0  0  0  0
    7.6741   -3.1301    0.2875 C   0  0  0  0  0  0  0  0  0  0  0  0
    7.0386   -1.9087   -0.3694 C   0  0  0  0  0  0  0  0  0  0  0  0
    5.7089   -1.5576    0.3001 C   0  0  0  0  0  0  0  0  0  0  0  0
    4.7516   -2.7813    0.4669 C   0  0  1  0  0  0  0  0  0  0  0  0
    3.9263   -3.1854   -0.8093 C   0  0  0  0  0  0  0  0  0  0  0  0
    3.3760   -1.9332   -1.5249 C   0  0  0  0  0  0  0  0  0  0  0  0
    4.6870   -4.0188   -1.8538 C   0  0  0  0  0  0  0  0  0  0  0  0
    2.7019   -3.8938   -0.5510 O   0  0  0  0  0  0  0  0  0  0  0  0
    6.4888   -8.1057    3.1136 H   0  0  0  0  0  0  0  0  0  0  0  0
    7.1036   -8.8390    1.5768 H   0  0  0  0  0  0  0  0  0  0  0  0
    5.5849   -9.4179    2.3090 H   0  0  0  0  0  0  0  0  0  0  0  0
    0.8238   -5.4036   -0.7322 H   0  0  0  0  0  0  0  0  0  0  0  0
   -0.0567   -6.7203    1.3646 H   0  0  0  0  0  0  0  0  0  0  0  0
    0.7012   -7.6990    0.0956 H   0  0  0  0  0  0  0  0  0  0  0  0
    2.8639   -7.5833    1.1368 H   0  0  0  0  0  0  0  0  0  0  0  0
    1.8563  -10.2305    0.8744 H   0  0  0  0  0  0  0  0  0  0  0  0
    2.4797  -10.9627    2.3292 H   0  0  0  0  0  0  0  0  0  0  0  0
    3.4923   -9.9307    1.3330 H   0  0  0  0  0  0  0  0  0  0  0  0
   -0.1523   -9.0742    2.4379 H   0  0  0  0  0  0  0  0  0  0  0  0
    0.5936  -10.1586    3.5918 H   0  0  0  0  0  0  0  0  0  0  0  0
   -0.7452   -7.9526    4.3774 H   0  0  0  0  0  0  0  0  0  0  0  0
    0.6496   -8.5360    5.2282 H   0  0  0  0  0  0  0  0  0  0  0  0
    0.2817   -6.0620    3.6820 H   0  0  0  0  0  0  0  0  0  0  0  0
    2.0375   -6.8390    5.7479 H   0  0  0  0  0  0  0  0  0  0  0  0
    1.5333   -4.0354    4.0234 H   0  0  0  0  0  0  0  0  0  0  0  0
    1.0284   -4.4028    2.4138 H   0  0  0  0  0  0  0  0  0  0  0  0
    2.2965   -3.2242    2.6714 H   0  0  0  0  0  0  0  0  0  0  0  0
    3.4809   -4.4640    4.7954 H   0  0  0  0  0  0  0  0  0  0  0  0
    4.4588   -6.4530    5.3369 H   0  0  0  0  0  0  0  0  0  0  0  0
    5.6776   -5.2065    5.3412 H   0  0  0  0  0  0  0  0  0  0  0  0
    5.6490   -6.3611    4.0374 H   0  0  0  0  0  0  0  0  0  0  0  0
    6.2735   -2.6915    2.7394 H   0  0  0  0  0  0  0  0  0  0  0  0
    6.5462   -4.3988    2.9995 H   0  0  0  0  0  0  0  0  0  0  0  0
    8.0901   -2.8612    1.2512 H   0  0  0  0  0  0  0  0  0  0  0  0
    8.5347   -3.4604   -0.2884 H   0  0  0  0  0  0  0  0  0  0  0  0
    7.7206   -1.0759   -0.2788 H   0  0  0  0  0  0  0  0  0  0  0  0
    6.9020   -2.1030   -1.4266 H   0  0  0  0  0  0  0  0  0  0  0  0
    5.9364   -1.1228    1.2786 H   0  0  0  0  0  0  0  0  0  0  0  0
    5.2403   -0.7303   -0.2258 H   0  0  0  0  0  0  0  0  0  0  0  0
    4.0126   -2.4357    1.1937 H   0  0  0  0  0  0  0  0  0  0  0  0
    4.1452   -1.3513   -2.0261 H   0  0  0  0  0  0  0  0  0  0  0  0
    2.8836   -1.2738   -0.8157 H   0  0  0  0  0  0  0  0  0  0  0  0
    2.6449   -2.2094   -2.2808 H   0  0  0  0  0  0  0  0  0  0  0  0
    5.5458   -3.5019   -2.2637 H   0  0  0  0  0  0  0  0  0  0  0  0
    4.0422   -4.2376   -2.6956 H   0  0  0  0  0  0  0  0  0  0  0  0
    5.0185   -4.9785   -1.4663 H   0  0  0  0  0  0  0  0  0  0  0  0
  1  2  1  0
  1 36  1  0
  1 37  1  0
  1 38  1  0
  2  3  2  0
  2  4  1  0
  4  5  1  0
  5 26  1  0
  5  6  2  0
  6 20  1  0
  6  7  1  0
  7 35  1  0
  7  8  2  0
  8  9  1  0
  8 39  1  0
  9 10  1  0
  9 40  1  0
  9 41  1  0
 10 17  1  0
 10 11  1  0
 10 42  1  6
 11 18  1  0
 11 12  1  6
 11 13  1  0
 12 43  1  0
 12 44  1  0
 12 45  1  0
 13 14  1  0
 13 46  1  0
 13 47  1  0
 14 15  1  0
 14 48  1  0
 14 49  1  0
 15 16  1  0
 15 17  1  0
 15 50  1  6
 16 51  1  0
 17 18  1  1
 17 20  1  0
 18 19  2  0
 20 21  1  6
 20 22  1  0
 21 52  1  0
 21 53  1  0
 21 54  1  0
 22 23  1  0
 22 24  1  0
 22 55  1  1
 23 56  1  0
 23 57  1  0
 23 58  1  0
 24 25  1  0
 25 26  1  0
 25 59  1  0
 25 60  1  0
 26 31  1  0
 26 27  1  6
 27 28  1  0
 28 29  1  0
 28 61  1  0
 28 62  1  0
 29 30  1  0
 29 63  1  0
 29 64  1  0
 30 31  1  0
 30 65  1  0
 30 66  1  0
 31 32  1  0
 31 67  1  1
 32 33  1  0
 32 34  1  0
 32 35  1  0
 33 68  1  0
 33 69  1  0
 33 70  1  0
 34 71  1  0
 34 72  1  0
 34 73  1  0
M  END
>  <i_m_ct_stereo_status>  (21) 
1

>  <s_m_source_file>  (21) 
/var/tmp/pbs.5076255.sched01/tmpuvpulguu/0mmv31ww_.sdf

>  <i_m_source_file_index>  (21) 
12

>  <i_lp_mmshare_version>  (21) 
48012

>  <i_f3d_flags>  (21) 
0

>  <s_epik_input>  (21) 
TzFbQ0gyXVtDSDJdW0NIMl1bQ0BASF0oQyhPMikoW0NIM10pW0NIM10pW0NAXTEoQz0zT0MoPU8pW0NIM10pW0NIMl1PW0NASF0oW0NIM10pW0NAQF00KFtDSDNdKUMzQzI9W0NIXVtDSDJdW0NAQEhdKFtDQEBdNDU2KVtDQEBdKFtDSDNdKShDNj1PKVtDSDJdW0NIMl1bQ0BIXTVbT0hd

>  <s_epik_cmdline>  (21) 
J2VwaWtfcHl0aG9uJywgJy1waHQnLCAnMi4wJywgJy1waCcsICc3LjAnLCAnLXRuJywgJzgnLCAnLW1hJywgJzIwMCcsICctaW1hZScsICc8aW5maWxlLm1hZT4nLCAnLW9tYWUnLCAnPG91dGZpbGUubWFlPic=

>  <r_lp_tautomer_probability>  (21) 
1

>  <r_epik_Ionization_Penalty>  (21) 
1.08712e-07

>  <r_epik_Ionization_Penalty_Charging>  (21) 
0

>  <r_epik_Ionization_Penalty_Neutral>  (21) 
1.08712e-07

>  <r_epik_State_Penalty>  (21) 
-0

>  <r_epik_Charging_Adjusted_Penalty>  (21) 
0

>  <i_epik_Tot_Q>  (21) 
0

>  <i_epik_Tot_abs_Q>  (21) 
0

>  <s_lp_Force_Field>  (21) 
OPLS3e

>  <r_lp_Energy>  (21) 
117.432

>  <b_lp_Chiralities_Consistent>  (21) 
1

>  <s_lp_Variant>  (21) 
6:0-1

>  <s_i_glide_gridfile>  (21) 
pfpi4k_grid

>  <i_i_glide_lignum>  (21) 
12

>  <i_i_glide_rotatable_bonds>  (21) 
3

>  <r_i_docking_score>  (21) 
-1.43416

>  <r_i_glide_ligand_efficiency>  (21) 
-0.040976

>  <r_i_glide_ligand_efficiency_sa>  (21) 
-0.134035

>  <r_i_glide_ligand_efficiency_ln>  (21) 
-0.31483

>  <r_i_glide_gscore>  (21) 
-1.43416

>  <r_i_glide_lipo>  (21) 
-0.472444

>  <r_i_glide_hbond>  (21) 
0

>  <r_i_glide_metal>  (21) 
-0

>  <r_i_glide_rewards>  (21) 
-0.208671

>  <r_i_glide_evdw>  (21) 
-17.3253

>  <r_i_glide_ecoul>  (21) 
0.190365

>  <r_i_glide_erotb>  (21) 
0.0858335

>  <r_i_glide_esite>  (21) 
-0.00116524

>  <r_i_glide_emodel>  (21) 
-16.6393

>  <r_i_glide_energy>  (21) 
-17.135

>  <r_i_glide_einternal>  (21) 
0.0495167

>  <r_i_glide_intrahb_reward>  (21) 
-0

>  <i_i_glide_confnum>  (21) 
3

>  <i_i_glide_posenum>  (21) 
30

>  <r_i_glide_eff_state_penalty>  (21) 
0

>  <ligand_id>  (21) 
6

>  <original_smiles>  (21) 
CC(=O)OC1=C2C3=CCC4C5(C)CCC(O)C4(C5=O)C2(C)C(C)OCC12OCCCC2C(C)(C)O3

>  <smiles>  (21) 
[H]OC1([H])C([H])([H])C([H])([H])C2(C([H])([H])[H])C(=O)C13C2([H])C([H])([H])C([H])=C1OC(C([H])([H])[H])(C([H])([H])[H])C2([H])C([H])([H])C([H])([H])C([H])([H])OC24C(OC(=O)C([H])([H])[H])=C1C3(C([H])([H])[H])C([H])(C([H])([H])[H])OC4([H])[H]

$$$$
7:0:0
     RDKit          3D

 60 65  0  0  1  0  0  0  0  0999 V2000
    0.6660   -0.1701    2.5108 C   0  0  0  0  0  0  0  0  0  0  0  0
    2.1703   -0.3766    2.4111 C   0  0  0  0  0  0  0  0  0  0  0  0
    2.9535    0.5563    2.5991 O   0  0  0  0  0  0  0  0  0  0  0  0
    2.5028   -1.6537    2.1081 O   0  0  0  0  0  0  0  0  0  0  0  0
    3.8632   -2.0316    1.8999 C   0  0  2  0  0  0  0  0  0  0  0  0
    4.2351   -2.0292    0.3924 C   0  0  0  0  0  0  0  0  0  0  0  0
    3.9030   -3.3331   -0.3530 C   0  0  1  0  0  0  0  0  0  0  0  0
    3.6570   -3.0341   -1.8110 C   0  0  0  0  0  0  0  0  0  0  0  0
    2.4035   -3.0534   -2.4898 C   0  0  0  0  0  0  0  0  0  0  0  0
    2.6531   -2.7312   -3.7853 C   0  0  0  0  0  0  0  0  0  0  0  0
    3.9754   -2.4913   -3.9804 O   0  0  0  0  0  0  0  0  0  0  0  0
    4.5704   -2.6846   -2.7762 C   0  0  0  0  0  0  0  0  0  0  0  0
    4.9321   -4.5156   -0.2258 C   0  0  0  0  0  0  0  0  0  0  0  0
    5.1146   -5.3891    1.0688 C   0  0  1  0  0  0  0  0  0  0  0  0
    6.0793   -4.8565    1.9693 O   0  0  0  0  0  0  0  0  0  0  0  0
    5.8137   -3.5105    2.2932 C   0  0  2  0  0  0  0  0  0  0  0  0
    5.3987   -3.2087    3.6101 O   0  0  0  0  0  0  0  0  0  0  0  0
    4.3353   -3.2955    2.6337 C   0  0  1  0  0  0  0  0  0  0  0  0
    3.4268   -4.5633    2.8208 C   0  0  1  0  0  0  0  0  0  0  0  0
    3.5983   -4.8295    4.2020 O   0  0  0  0  0  0  0  0  0  0  0  0
    1.8969   -4.4001    2.8045 C   0  0  0  0  0  0  0  0  0  0  0  0
    1.1429   -5.7585    2.9265 C   0  0  0  0  0  0  0  0  0  0  0  0
    1.8309   -6.9802    2.2399 C   0  0  1  0  0  0  0  0  0  0  0  0
    2.7256   -6.4641    1.1121 C   0  0  1  0  0  0  0  0  0  0  0  0
    1.9842   -5.7639    0.1300 O   0  0  0  0  0  0  0  0  0  0  0  0
    3.8742   -5.7866    1.9150 C   0  0  1  0  0  0  0  0  0  0  0  0
    4.1972   -7.0524    2.7864 C   0  0  0  0  0  0  0  0  0  0  0  0
    2.8534   -7.7770    3.1003 C   0  0  0  0  0  0  0  0  0  0  0  0
    2.5332   -7.8421    4.6121 C   0  0  0  0  0  0  0  0  0  0  0  0
    2.9069   -9.2500    2.6172 C   0  0  0  0  0  0  0  0  0  0  0  0
    0.2278   -0.8966    3.1970 H   0  0  0  0  0  0  0  0  0  0  0  0
    0.2185   -0.2993    1.5249 H   0  0  0  0  0  0  0  0  0  0  0  0
    0.4270    0.8351    2.8621 H   0  0  0  0  0  0  0  0  0  0  0  0
    4.4843   -1.2461    2.3312 H   0  0  0  0  0  0  0  0  0  0  0  0
    3.6956   -1.2037   -0.0735 H   0  0  0  0  0  0  0  0  0  0  0  0
    5.2845   -1.7837    0.2369 H   0  0  0  0  0  0  0  0  0  0  0  0
    2.9285   -3.6191    0.0170 H   0  0  0  0  0  0  0  0  0  0  0  0
    1.4267   -3.2886   -2.0941 H   0  0  0  0  0  0  0  0  0  0  0  0
    2.0230   -2.6298   -4.6544 H   0  0  0  0  0  0  0  0  0  0  0  0
    5.6371   -2.5335   -2.7793 H   0  0  0  0  0  0  0  0  0  0  0  0
    4.6367   -5.2355   -0.9882 H   0  0  0  0  0  0  0  0  0  0  0  0
    5.9159   -4.1680   -0.5484 H   0  0  0  0  0  0  0  0  0  0  0  0
    5.5820   -6.3093    0.7249 H   0  0  0  0  0  0  0  0  0  0  0  0
    6.4584   -2.7590    1.8442 H   0  0  0  0  0  0  0  0  0  0  0  0
    4.5183   -5.0110    4.3307 H   0  0  0  0  0  0  0  0  0  0  0  0
    1.5465   -3.7105    3.5768 H   0  0  0  0  0  0  0  0  0  0  0  0
    1.6205   -3.9441    1.8605 H   0  0  0  0  0  0  0  0  0  0  0  0
    0.8841   -5.9685    3.9638 H   0  0  0  0  0  0  0  0  0  0  0  0
    0.1883   -5.6300    2.4286 H   0  0  0  0  0  0  0  0  0  0  0  0
    1.0627   -7.6540    1.8567 H   0  0  0  0  0  0  0  0  0  0  0  0
    3.1625   -7.3001    0.5693 H   0  0  0  0  0  0  0  0  0  0  0  0
    2.5361   -5.6524   -0.6366 H   0  0  0  0  0  0  0  0  0  0  0  0
    4.8129   -7.7375    2.2012 H   0  0  0  0  0  0  0  0  0  0  0  0
    4.8070   -6.8631    3.6701 H   0  0  0  0  0  0  0  0  0  0  0  0
    3.2624   -8.4562    5.1409 H   0  0  0  0  0  0  0  0  0  0  0  0
    1.5523   -8.2861    4.7848 H   0  0  0  0  0  0  0  0  0  0  0  0
    2.5396   -6.8722    5.1022 H   0  0  0  0  0  0  0  0  0  0  0  0
    3.6702   -9.8165    3.1534 H   0  0  0  0  0  0  0  0  0  0  0  0
    3.1254   -9.3443    1.5529 H   0  0  0  0  0  0  0  0  0  0  0  0
    1.9553   -9.7548    2.7926 H   0  0  0  0  0  0  0  0  0  0  0  0
  1  2  1  0
  1 31  1  0
  1 32  1  0
  1 33  1  0
  2  3  2  0
  2  4  1  0
  4  5  1  0
  5 18  1  0
  5  6  1  0
  5 34  1  1
  6  7  1  0
  6 35  1  0
  6 36  1  0
  7  8  1  0
  7 13  1  0
  7 37  1  1
  8 12  2  0
  8  9  1  0
  9 10  2  0
  9 38  1  0
 10 11  1  0
 10 39  1  0
 11 12  1  0
 12 40  1  0
 13 14  1  0
 13 41  1  0
 13 42  1  0
 14 26  1  0
 14 15  1  0
 14 43  1  6
 15 16  1  0
 16 18  1  0
 16 17  1  0
 16 44  1  6
 18 17  1  1
 18 19  1  0
 19 26  1  0
 19 20  1  1
 19 21  1  0
 20 45  1  0
 21 22  1  0
 21 46  1  0
 21 47  1  0
 22 23  1  0
 22 48  1  0
 22 49  1  0
 23 28  1  0
 23 24  1  0
 23 50  1  6
 24 25  1  0
 24 26  1  0
 24 51  1  6
 25 52  1  0
 26 27  1  1
 27 28  1  0
 27 53  1  0
 27 54  1  0
 28 29  1  0
 28 30  1  0
 29 55  1  0
 29 56  1  0
 29 57  1  0
 30 58  1  0
 30 59  1  0
 30 60  1  0
M  END
>  <i_m_ct_stereo_status>  (22) 
1

>  <s_m_source_file>  (22) 
/var/tmp/pbs.5076255.sched01/tmpuvpulguu/0mmv31ww_.sdf

>  <i_m_source_file_index>  (22) 
13

>  <i_lp_mmshare_version>  (22) 
48012

>  <i_f3d_flags>  (22) 
0

>  <s_epik_input>  (22) 
W0NIM11DKD1PKU9bQ0BASF0xW0NIMl1bQ0BASF0oYzJbY0hdW2NIXW9bY0hdMilbQ0gyXVtDQEBIXShPW0NASF0oTzMpW0NAXTEzNClbQ0BAXTU2W0NAXTQoW09IXSlbQ0gyXVtDSDJdW0NAQEhdKFtDQEhdNVtPSF0pQyhbQ0gyXTYpKFtDSDNdKVtDSDNd

>  <s_epik_cmdline>  (22) 
J2VwaWtfcHl0aG9uJywgJy1waHQnLCAnMi4wJywgJy1waCcsICc3LjAnLCAnLXRuJywgJzgnLCAnLW1hJywgJzIwMCcsICctaW1hZScsICc8aW5maWxlLm1hZT4nLCAnLW9tYWUnLCAnPG91dGZpbGUubWFlPic=

>  <r_lp_tautomer_probability>  (22) 
1

>  <r_epik_Ionization_Penalty>  (22) 
3.31013e-07

>  <r_epik_Ionization_Penalty_Charging>  (22) 
0

>  <r_epik_Ionization_Penalty_Neutral>  (22) 
3.31013e-07

>  <r_epik_State_Penalty>  (22) 
-0

>  <r_epik_Charging_Adjusted_Penalty>  (22) 
0

>  <i_epik_Tot_Q>  (22) 
0

>  <i_epik_Tot_abs_Q>  (22) 
0

>  <s_epik_Chemistry_Notes>  (22) 
This compound has an ester and may undergo hydrolysis at high or low pH. This compound contains an acetal/aminal-like group ( X-CH(R)-Y where X, Y are N, S, or O) that may be acid/base labile, releasing an aldehyde.

>  <s_lp_Force_Field>  (22) 
OPLS3e

>  <r_lp_Energy>  (22) 
74.8802

>  <b_lp_Chiralities_Consistent>  (22) 
1

>  <s_lp_Variant>  (22) 
7:0-1

>  <s_i_glide_gridfile>  (22) 
pfpi4k_grid

>  <i_i_glide_lignum>  (22) 
13

>  <i_i_glide_rotatable_bonds>  (22) 
5

>  <r_i_docking_score>  (22) 
-3.63764

>  <r_i_glide_ligand_efficiency>  (22) 
-0.121255

>  <r_i_glide_ligand_efficiency_sa>  (22) 
-0.376767

>  <r_i_glide_ligand_efficiency_ln>  (22) 
-0.826512

>  <r_i_glide_gscore>  (22) 
-3.63764

>  <r_i_glide_lipo>  (22) 
-0.529903

>  <r_i_glide_hbond>  (22) 
-0.503609

>  <r_i_glide_metal>  (22) 
-0

>  <r_i_glide_rewards>  (22) 
-0.584543

>  <r_i_glide_evdw>  (22) 
-28.5247

>  <r_i_glide_ecoul>  (22) 
-5.30387

>  <r_i_glide_erotb>  (22) 
0.225834

>  <r_i_glide_esite>  (22) 
-0.0236062

>  <r_i_glide_emodel>  (22) 
-41.383

>  <r_i_glide_energy>  (22) 
-33.8286

>  <r_i_glide_einternal>  (22) 
0.945266

>  <r_i_glide_intrahb_reward>  (22) 
-0

>  <i_i_glide_confnum>  (22) 
2

>  <i_i_glide_posenum>  (22) 
7

>  <r_i_glide_eff_state_penalty>  (22) 
0

>  <ligand_id>  (22) 
7

>  <original_smiles>  (22) 
CC(=O)OC1CC(c2ccoc2)CC2OC3OC13C1(O)CCC3C(O)C21CC3(C)C

>  <smiles>  (22) 
[H]OC1([H])C2([H])C([H])([H])C([H])([H])C3(O[H])C45OC4([H])OC([H])(C([H])([H])C([H])(c4c([H])oc([H])c4[H])C([H])([H])C5([H])OC(=O)C([H])([H])[H])C13C([H])([H])C2(C([H])([H])[H])C([H])([H])[H]

$$$$
7:0:1
     RDKit          3D

 60 65  0  0  1  0  0  0  0  0999 V2000
    2.5593    1.0715    2.1049 C   0  0  0  0  0  0  0  0  0  0  0  0
    1.6255   -0.1226    2.3842 C   0  0  0  0  0  0  0  0  0  0  0  0
    0.4501    0.0694    2.6745 O   0  0  0  0  0  0  0  0  0  0  0  0
    2.1773   -1.3680    2.3012 O   0  0  0  0  0  0  0  0  0  0  0  0
    3.5507   -1.6104    2.0092 C   0  0  2  0  0  0  0  0  0  0  0  0
    3.8719   -1.5063    0.4926 C   0  0  0  0  0  0  0  0  0  0  0  0
    3.6858   -2.7994   -0.3119 C   0  0  1  0  0  0  0  0  0  0  0  0
    3.3915   -2.4443   -1.7594 C   0  0  0  0  0  0  0  0  0  0  0  0
    3.9263   -1.3718   -2.5303 C   0  0  0  0  0  0  0  0  0  0  0  0
    3.3285   -1.4337   -3.7640 C   0  0  0  0  0  0  0  0  0  0  0  0
    2.4621   -2.4734   -3.8224 O   0  0  0  0  0  0  0  0  0  0  0  0
    2.4979   -3.0589   -2.5946 C   0  0  0  0  0  0  0  0  0  0  0  0
    4.8684   -3.8228   -0.2599 C   0  0  0  0  0  0  0  0  0  0  0  0
    5.1914   -4.7134    0.9951 C   0  0  1  0  0  0  0  0  0  0  0  0
    6.1185   -4.1072    1.8803 O   0  0  0  0  0  0  0  0  0  0  0  0
    5.6774   -2.8181    2.3108 C   0  0  2  0  0  0  0  0  0  0  0  0
    5.2525   -2.6136    3.6374 O   0  0  0  0  0  0  0  0  0  0  0  0
    4.2004   -2.8199    2.6739 C   0  0  1  0  0  0  0  0  0  0  0  0
    3.4545   -4.2025    2.8218 C   0  0  1  0  0  0  0  0  0  0  0  0
    3.7000   -4.5063    4.1828 O   0  0  0  0  0  0  0  0  0  0  0  0
    1.9137   -4.2280    2.8411 C   0  0  0  0  0  0  0  0  0  0  0  0
    1.3359   -5.6794    2.9041 C   0  0  0  0  0  0  0  0  0  0  0  0
    2.1698   -6.7648    2.1492 C   0  0  1  0  0  0  0  0  0  0  0  0
    2.9647   -6.1010    1.0263 C   0  0  1  0  0  0  0  0  0  0  0  0
    2.1156   -5.4749    0.0811 O   0  0  0  0  0  0  0  0  0  0  0  0
    4.0367   -5.3126    1.8480 C   0  0  1  0  0  0  0  0  0  0  0  0
    4.5441   -6.5627    2.6545 C   0  0  0  0  0  0  0  0  0  0  0  0
    3.3108   -7.4596    2.9543 C   0  0  0  0  0  0  0  0  0  0  0  0
    3.0392   -7.6313    4.4677 C   0  0  0  0  0  0  0  0  0  0  0  0
    3.5434   -8.8880    2.4011 C   0  0  0  0  0  0  0  0  0  0  0  0
    3.0473    0.9849    1.1324 H   0  0  0  0  0  0  0  0  0  0  0  0
    3.3352    1.1306    2.8778 H   0  0  0  0  0  0  0  0  0  0  0  0
    2.0130    2.0128    2.1087 H   0  0  0  0  0  0  0  0  0  0  0  0
    4.0951   -0.7964    2.4739 H   0  0  0  0  0  0  0  0  0  0  0  0
    3.2066   -0.7596    0.0598 H   0  0  0  0  0  0  0  0  0  0  0  0
    4.8727   -1.1124    0.3282 H   0  0  0  0  0  0  0  0  0  0  0  0
    2.7618   -3.2152    0.0644 H   0  0  0  0  0  0  0  0  0  0  0  0
    4.6326   -0.6161   -2.2267 H   0  0  0  0  0  0  0  0  0  0  0  0
    3.3833   -0.8379   -4.6590 H   0  0  0  0  0  0  0  0  0  0  0  0
    1.8171   -3.8930   -2.4900 H   0  0  0  0  0  0  0  0  0  0  0  0
    4.6570   -4.5427   -1.0481 H   0  0  0  0  0  0  0  0  0  0  0  0
    5.7814   -3.3146   -0.5785 H   0  0  0  0  0  0  0  0  0  0  0  0
    5.7739   -5.5412    0.6054 H   0  0  0  0  0  0  0  0  0  0  0  0
    6.1904   -1.9787    1.9029 H   0  0  0  0  0  0  0  0  0  0  0  0
    4.6377   -4.5320    4.2956 H   0  0  0  0  0  0  0  0  0  0  0  0
    1.5069   -3.6270    3.6553 H   0  0  0  0  0  0  0  0  0  0  0  0
    1.5571   -3.7601    1.9335 H   0  0  0  0  0  0  0  0  0  0  0  0
    1.1462   -5.9608    3.9376 H   0  0  0  0  0  0  0  0  0  0  0  0
    0.3501   -5.6451    2.4456 H   0  0  0  0  0  0  0  0  0  0  0  0
    1.4868   -7.5156    1.7538 H   0  0  0  0  0  0  0  0  0  0  0  0
    3.4784   -6.8576    0.4369 H   0  0  0  0  0  0  0  0  0  0  0  0
    2.5761   -5.4267   -0.7472 H   0  0  0  0  0  0  0  0  0  0  0  0
    5.2310   -7.1225    2.0199 H   0  0  0  0  0  0  0  0  0  0  0  0
    5.1412   -6.3202    3.5279 H   0  0  0  0  0  0  0  0  0  0  0  0
    3.8535   -8.1680    4.9499 H   0  0  0  0  0  0  0  0  0  0  0  0
    2.1296   -8.2050    4.6373 H   0  0  0  0  0  0  0  0  0  0  0  0
    2.9342   -6.6914    5.0045 H   0  0  0  0  0  0  0  0  0  0  0  0
    4.3868   -9.3710    2.8947 H   0  0  0  0  0  0  0  0  0  0  0  0
    3.7456   -8.9045    1.3297 H   0  0  0  0  0  0  0  0  0  0  0  0
    2.6724   -9.5180    2.5685 H   0  0  0  0  0  0  0  0  0  0  0  0
  1  2  1  0
  1 31  1  0
  1 32  1  0
  1 33  1  0
  2  3  2  0
  2  4  1  0
  4  5  1  0
  5 18  1  0
  5  6  1  0
  5 34  1  1
  6  7  1  0
  6 35  1  0
  6 36  1  0
  7  8  1  0
  7 13  1  0
  7 37  1  1
  8 12  2  0
  8  9  1  0
  9 10  2  0
  9 38  1  0
 10 11  1  0
 10 39  1  0
 11 12  1  0
 12 40  1  0
 13 14  1  0
 13 41  1  0
 13 42  1  0
 14 26  1  0
 14 15  1  0
 14 43  1  6
 15 16  1  0
 16 18  1  0
 16 17  1  0
 16 44  1  6
 18 17  1  1
 18 19  1  0
 19 26  1  0
 19 20  1  1
 19 21  1  0
 20 45  1  0
 21 22  1  0
 21 46  1  0
 21 47  1  0
 22 23  1  0
 22 48  1  0
 22 49  1  0
 23 28  1  0
 23 24  1  0
 23 50  1  6
 24 25  1  0
 24 26  1  0
 24 51  1  6
 25 52  1  0
 26 27  1  1
 27 28  1  0
 27 53  1  0
 27 54  1  0
 28 29  1  0
 28 30  1  0
 29 55  1  0
 29 56  1  0
 29 57  1  0
 30 58  1  0
 30 59  1  0
 30 60  1  0
M  END
>  <i_m_ct_stereo_status>  (23) 
1

>  <s_m_source_file>  (23) 
/var/tmp/pbs.5076255.sched01/tmpuvpulguu/0mmv31ww_.sdf

>  <i_m_source_file_index>  (23) 
13

>  <i_lp_mmshare_version>  (23) 
48012

>  <i_f3d_flags>  (23) 
0

>  <s_epik_input>  (23) 
W0NIM11DKD1PKU9bQ0BASF0xW0NIMl1bQ0BASF0oYzJbY0hdW2NIXW9bY0hdMilbQ0gyXVtDQEBIXShPW0NASF0oTzMpW0NAXTEzNClbQ0BAXTU2W0NAXTQoW09IXSlbQ0gyXVtDSDJdW0NAQEhdKFtDQEhdNVtPSF0pQyhbQ0gyXTYpKFtDSDNdKVtDSDNd

>  <s_epik_cmdline>  (23) 
J2VwaWtfcHl0aG9uJywgJy1waHQnLCAnMi4wJywgJy1waCcsICc3LjAnLCAnLXRuJywgJzgnLCAnLW1hJywgJzIwMCcsICctaW1hZScsICc8aW5maWxlLm1hZT4nLCAnLW9tYWUnLCAnPG91dGZpbGUubWFlPic=

>  <r_lp_tautomer_probability>  (23) 
1

>  <r_epik_Ionization_Penalty>  (23) 
3.31013e-07

>  <r_epik_Ionization_Penalty_Charging>  (23) 
0

>  <r_epik_Ionization_Penalty_Neutral>  (23) 
3.31013e-07

>  <r_epik_State_Penalty>  (23) 
-0

>  <r_epik_Charging_Adjusted_Penalty>  (23) 
0

>  <i_epik_Tot_Q>  (23) 
0

>  <i_epik_Tot_abs_Q>  (23) 
0

>  <s_epik_Chemistry_Notes>  (23) 
This compound has an ester and may undergo hydrolysis at high or low pH. This compound contains an acetal/aminal-like group ( X-CH(R)-Y where X, Y are N, S, or O) that may be acid/base labile, releasing an aldehyde.

>  <s_lp_Force_Field>  (23) 
OPLS3e

>  <r_lp_Energy>  (23) 
74.8802

>  <b_lp_Chiralities_Consistent>  (23) 
1

>  <s_lp_Variant>  (23) 
7:0-1

>  <s_i_glide_gridfile>  (23) 
pfpi4k_grid

>  <i_i_glide_lignum>  (23) 
13

>  <i_i_glide_rotatable_bonds>  (23) 
5

>  <r_i_docking_score>  (23) 
-3.22981

>  <r_i_glide_ligand_efficiency>  (23) 
-0.10766

>  <r_i_glide_ligand_efficiency_sa>  (23) 
-0.334525

>  <r_i_glide_ligand_efficiency_ln>  (23) 
-0.733847

>  <r_i_glide_gscore>  (23) 
-3.22981

>  <r_i_glide_lipo>  (23) 
-0.330928

>  <r_i_glide_hbond>  (23) 
-0.325052

>  <r_i_glide_metal>  (23) 
-0

>  <r_i_glide_rewards>  (23) 
-0.595125

>  <r_i_glide_evdw>  (23) 
-31.8423

>  <r_i_glide_ecoul>  (23) 
-3.86186

>  <r_i_glide_erotb>  (23) 
0.225834

>  <r_i_glide_esite>  (23) 
-0.0331408

>  <r_i_glide_emodel>  (23) 
-39.1497

>  <r_i_glide_energy>  (23) 
-35.7042

>  <r_i_glide_einternal>  (23) 
6.65253

>  <r_i_glide_intrahb_reward>  (23) 
-0

>  <i_i_glide_confnum>  (23) 
4

>  <i_i_glide_posenum>  (23) 
35

>  <r_i_glide_eff_state_penalty>  (23) 
0

>  <ligand_id>  (23) 
7

>  <original_smiles>  (23) 
CC(=O)OC1CC(c2ccoc2)CC2OC3OC13C1(O)CCC3C(O)C21CC3(C)C

>  <smiles>  (23) 
[H]OC1([H])C2([H])C([H])([H])C([H])([H])C3(O[H])C45OC4([H])OC([H])(C([H])([H])C([H])(c4c([H])oc([H])c4[H])C([H])([H])C5([H])OC(=O)C([H])([H])[H])C13C([H])([H])C2(C([H])([H])[H])C([H])([H])[H]

$$$$
7:0:2
     RDKit          3D

 60 65  0  0  1  0  0  0  0  0999 V2000
    8.2099   -6.2609    5.4091 C   0  0  0  0  0  0  0  0  0  0  0  0
    6.8932   -5.4807    5.4954 C   0  0  0  0  0  0  0  0  0  0  0  0
    6.5966   -4.8762    6.5185 O   0  0  0  0  0  0  0  0  0  0  0  0
    6.0877   -5.4987    4.3995 O   0  0  0  0  0  0  0  0  0  0  0  0
    6.4145   -6.2045    3.1986 C   0  0  2  0  0  0  0  0  0  0  0  0
    6.0863   -5.3799    1.9329 C   0  0  0  0  0  0  0  0  0  0  0  0
    4.6575   -5.5413    1.4153 C   0  0  1  0  0  0  0  0  0  0  0  0
    4.2604   -4.2900    0.6656 C   0  0  0  0  0  0  0  0  0  0  0  0
    3.5822   -3.1570    1.1953 C   0  0  0  0  0  0  0  0  0  0  0  0
    3.4210   -2.2713    0.1609 C   0  0  0  0  0  0  0  0  0  0  0  0
    3.9693   -2.7690   -0.9775 O   0  0  0  0  0  0  0  0  0  0  0  0
    4.4726   -3.9913   -0.6597 C   0  0  0  0  0  0  0  0  0  0  0  0
    4.3637   -6.8163    0.5471 C   0  0  0  0  0  0  0  0  0  0  0  0
    4.2624   -8.2788    1.1239 C   0  0  1  0  0  0  0  0  0  0  0  0
    5.5091   -8.9733    1.1381 O   0  0  0  0  0  0  0  0  0  0  0  0
    6.5166   -8.2538    1.8260 C   0  0  2  0  0  0  0  0  0  0  0  0
    6.9614   -8.7149    3.0851 O   0  0  0  0  0  0  0  0  0  0  0  0
    5.9644   -7.6635    3.1265 C   0  0  1  0  0  0  0  0  0  0  0  0
    4.5636   -8.1421    3.6656 C   0  0  1  0  0  0  0  0  0  0  0  0
    4.9230   -9.2589    4.4647 O   0  0  0  0  0  0  0  0  0  0  0  0
    3.8466   -7.3137    4.7602 C   0  0  0  0  0  0  0  0  0  0  0  0
    2.4399   -7.8858    5.1206 C   0  0  0  0  0  0  0  0  0  0  0  0
    1.6480   -8.5162    3.9265 C   0  0  1  0  0  0  0  0  0  0  0  0
    2.1310   -7.8855    2.6167 C   0  0  1  0  0  0  0  0  0  0  0  0
    1.9320   -6.4887    2.6059 O   0  0  0  0  0  0  0  0  0  0  0  0
    3.5627   -8.5054    2.4936 C   0  0  1  0  0  0  0  0  0  0  0  0
    3.0766   -9.9911    2.6139 C   0  0  0  0  0  0  0  0  0  0  0  0
    1.8978  -10.0278    3.6363 C   0  0  0  0  0  0  0  0  0  0  0  0
    2.1912  -10.9084    4.8752 C   0  0  0  0  0  0  0  0  0  0  0  0
    0.6347  -10.6424    2.9782 C   0  0  0  0  0  0  0  0  0  0  0  0
    8.8225   -5.8989    4.5846 H   0  0  0  0  0  0  0  0  0  0  0  0
    7.9996   -7.3171    5.2574 H   0  0  0  0  0  0  0  0  0  0  0  0
    8.7880   -6.1620    6.3238 H   0  0  0  0  0  0  0  0  0  0  0  0
    7.4974   -6.2424    3.1122 H   0  0  0  0  0  0  0  0  0  0  0  0
    6.2791   -4.3360    2.1788 H   0  0  0  0  0  0  0  0  0  0  0  0
    6.7907   -5.6034    1.1346 H   0  0  0  0  0  0  0  0  0  0  0  0
    4.0382   -5.5170    2.3001 H   0  0  0  0  0  0  0  0  0  0  0  0
    3.2399   -2.9946    2.2068 H   0  0  0  0  0  0  0  0  0  0  0  0
    2.9642   -1.3027    0.0685 H   0  0  0  0  0  0  0  0  0  0  0  0
    4.9251   -4.5171   -1.4825 H   0  0  0  0  0  0  0  0  0  0  0  0
    3.3793   -6.6379    0.1167 H   0  0  0  0  0  0  0  0  0  0  0  0
    5.0293   -6.8277   -0.3152 H   0  0  0  0  0  0  0  0  0  0  0  0
    3.7065   -8.8519    0.3905 H   0  0  0  0  0  0  0  0  0  0  0  0
    7.2831   -7.7795    1.2203 H   0  0  0  0  0  0  0  0  0  0  0  0
    4.1375   -9.7412    4.6681 H   0  0  0  0  0  0  0  0  0  0  0  0
    4.4477   -7.2579    5.6695 H   0  0  0  0  0  0  0  0  0  0  0  0
    3.7214   -6.2841    4.4381 H   0  0  0  0  0  0  0  0  0  0  0  0
    2.5105   -8.5782    5.9593 H   0  0  0  0  0  0  0  0  0  0  0  0
    1.8502   -7.0563    5.5113 H   0  0  0  0  0  0  0  0  0  0  0  0
    0.5843   -8.3432    4.0826 H   0  0  0  0  0  0  0  0  0  0  0  0
    1.5227   -8.2369    1.7796 H   0  0  0  0  0  0  0  0  0  0  0  0
    2.4371   -6.1101    3.3120 H   0  0  0  0  0  0  0  0  0  0  0  0
    2.6814  -10.3020    1.6428 H   0  0  0  0  0  0  0  0  0  0  0  0
    3.8652  -10.7202    2.8144 H   0  0  0  0  0  0  0  0  0  0  0  0
    2.2936  -11.9563    4.5900 H   0  0  0  0  0  0  0  0  0  0  0  0
    1.3730  -10.8536    5.5943 H   0  0  0  0  0  0  0  0  0  0  0  0
    3.1023  -10.6504    5.4100 H   0  0  0  0  0  0  0  0  0  0  0  0
    0.7991  -11.6839    2.6967 H   0  0  0  0  0  0  0  0  0  0  0  0
    0.3160  -10.1120    2.0818 H   0  0  0  0  0  0  0  0  0  0  0  0
   -0.2017  -10.6328    3.6756 H   0  0  0  0  0  0  0  0  0  0  0  0
  1  2  1  0
  1 31  1  0
  1 32  1  0
  1 33  1  0
  2  3  2  0
  2  4  1  0
  4  5  1  0
  5 18  1  0
  5  6  1  0
  5 34  1  1
  6  7  1  0
  6 35  1  0
  6 36  1  0
  7  8  1  0
  7 13  1  0
  7 37  1  1
  8 12  2  0
  8  9  1  0
  9 10  2  0
  9 38  1  0
 10 11  1  0
 10 39  1  0
 11 12  1  0
 12 40  1  0
 13 14  1  0
 13 41  1  0
 13 42  1  0
 14 26  1  0
 14 15  1  0
 14 43  1  6
 15 16  1  0
 16 18  1  0
 16 17  1  0
 16 44  1  6
 18 17  1  1
 18 19  1  0
 19 26  1  0
 19 20  1  1
 19 21  1  0
 20 45  1  0
 21 22  1  0
 21 46  1  0
 21 47  1  0
 22 23  1  0
 22 48  1  0
 22 49  1  0
 23 28  1  0
 23 24  1  0
 23 50  1  1
 24 25  1  0
 24 26  1  0
 24 51  1  6
 25 52  1  0
 26 27  1  1
 27 28  1  0
 27 53  1  0
 27 54  1  0
 28 29  1  0
 28 30  1  0
 29 55  1  0
 29 56  1  0
 29 57  1  0
 30 58  1  0
 30 59  1  0
 30 60  1  0
M  END
>  <i_m_ct_stereo_status>  (24) 
1

>  <s_m_source_file>  (24) 
/var/tmp/pbs.5076255.sched01/tmpuvpulguu/0mmv31ww_.sdf

>  <i_m_source_file_index>  (24) 
13

>  <i_lp_mmshare_version>  (24) 
48012

>  <i_f3d_flags>  (24) 
0

>  <s_epik_input>  (24) 
W0NIM11DKD1PKU9bQ0BASF0xW0NIMl1bQ0BASF0oYzJbY0hdW2NIXW9bY0hdMilbQ0gyXVtDQEBIXShPW0NASF0oTzMpW0NAXTEzNClbQ0BAXTU2W0NAXTQoW09IXSlbQ0gyXVtDSDJdW0NAQEhdKFtDQEhdNVtPSF0pQyhbQ0gyXTYpKFtDSDNdKVtDSDNd

>  <s_epik_cmdline>  (24) 
J2VwaWtfcHl0aG9uJywgJy1waHQnLCAnMi4wJywgJy1waCcsICc3LjAnLCAnLXRuJywgJzgnLCAnLW1hJywgJzIwMCcsICctaW1hZScsICc8aW5maWxlLm1hZT4nLCAnLW9tYWUnLCAnPG91dGZpbGUubWFlPic=

>  <r_lp_tautomer_probability>  (24) 
1

>  <r_epik_Ionization_Penalty>  (24) 
3.31013e-07

>  <r_epik_Ionization_Penalty_Charging>  (24) 
0

>  <r_epik_Ionization_Penalty_Neutral>  (24) 
3.31013e-07

>  <r_epik_State_Penalty>  (24) 
-0

>  <r_epik_Charging_Adjusted_Penalty>  (24) 
0

>  <i_epik_Tot_Q>  (24) 
0

>  <i_epik_Tot_abs_Q>  (24) 
0

>  <s_epik_Chemistry_Notes>  (24) 
This compound has an ester and may undergo hydrolysis at high or low pH. This compound contains an acetal/aminal-like group ( X-CH(R)-Y where X, Y are N, S, or O) that may be acid/base labile, releasing an aldehyde.

>  <s_lp_Force_Field>  (24) 
OPLS3e

>  <r_lp_Energy>  (24) 
74.8802

>  <b_lp_Chiralities_Consistent>  (24) 
1

>  <s_lp_Variant>  (24) 
7:0-1

>  <s_i_glide_gridfile>  (24) 
pfpi4k_grid

>  <i_i_glide_lignum>  (24) 
13

>  <i_i_glide_rotatable_bonds>  (24) 
5

>  <r_i_docking_score>  (24) 
-2.64217

>  <r_i_glide_ligand_efficiency>  (24) 
-0.0880723

>  <r_i_glide_ligand_efficiency_sa>  (24) 
-0.273661

>  <r_i_glide_ligand_efficiency_ln>  (24) 
-0.600329

>  <r_i_glide_gscore>  (24) 
-2.64217

>  <r_i_glide_lipo>  (24) 
-0.393399

>  <r_i_glide_hbond>  (24) 
0

>  <r_i_glide_metal>  (24) 
-0

>  <r_i_glide_rewards>  (24) 
-0.720511

>  <r_i_glide_evdw>  (24) 
-27.7138

>  <r_i_glide_ecoul>  (24) 
-2.456

>  <r_i_glide_erotb>  (24) 
0.225834

>  <r_i_glide_esite>  (24) 
0

>  <r_i_glide_emodel>  (24) 
-33.1588

>  <r_i_glide_energy>  (24) 
-30.1698

>  <r_i_glide_einternal>  (24) 
5.40317

>  <r_i_glide_intrahb_reward>  (24) 
-0

>  <i_i_glide_confnum>  (24) 
3

>  <i_i_glide_posenum>  (24) 
38

>  <r_i_glide_eff_state_penalty>  (24) 
0

>  <ligand_id>  (24) 
7

>  <original_smiles>  (24) 
CC(=O)OC1CC(c2ccoc2)CC2OC3OC13C1(O)CCC3C(O)C21CC3(C)C

>  <smiles>  (24) 
[H]OC1([H])C2([H])C([H])([H])C([H])([H])C3(O[H])C45OC4([H])OC([H])(C([H])([H])C([H])(c4c([H])oc([H])c4[H])C([H])([H])C5([H])OC(=O)C([H])([H])[H])C13C([H])([H])C2(C([H])([H])[H])C([H])([H])[H]

$$$$
8:0:0
     RDKit          3D

 32 34  0  0  1  0  0  0  0  0999 V2000
    6.6025   -4.9496    1.6231 C   0  0  0  0  0  0  0  0  0  0  0  0
    5.7952   -3.6520    1.5202 C   0  0  0  0  0  0  0  0  0  0  0  0
    5.4260   -3.0880    2.5501 O   0  0  0  0  0  0  0  0  0  0  0  0
    5.4978   -3.0573    0.1235 C   0  0  2  0  0  0  0  0  0  0  0  0
    4.8937   -4.0897   -0.8683 C   0  0  0  0  0  0  0  0  0  0  0  0
    5.2557   -3.4517   -2.2257 C   0  0  2  0  0  0  0  0  0  0  0  0
    6.6731   -3.0192   -1.9147 C   0  0  0  0  0  0  0  0  0  0  0  0
    6.8113   -2.7495   -0.6166 C   0  0  0  0  0  0  0  0  0  0  0  0
    8.0864   -2.2399    0.0541 C   0  0  0  0  0  0  0  0  0  0  0  0
    4.4021   -2.2003   -2.4357 C   0  0  2  0  0  0  0  0  0  0  0  0
    3.3794   -2.2771   -3.5437 C   0  0  0  0  0  0  0  0  0  0  0  0
    5.0807   -0.9519   -2.2315 O   0  0  0  0  0  0  0  0  0  0  0  0
    4.1260   -1.3247   -1.2404 C   0  0  2  0  0  0  0  0  0  0  0  0
    4.5767   -1.7694    0.1601 C   0  0  1  0  0  0  0  0  0  0  0  0
    3.4090   -1.8737    0.9864 O   0  0  0  0  0  0  0  0  0  0  0  0
    2.3955   -2.6642    0.3221 O   0  0  0  0  0  0  0  0  0  0  0  0
    7.5016   -4.9254    1.0081 H   0  0  0  0  0  0  0  0  0  0  0  0
    5.9973   -5.7967    1.3100 H   0  0  0  0  0  0  0  0  0  0  0  0
    6.9118   -5.1197    2.6554 H   0  0  0  0  0  0  0  0  0  0  0  0
    5.4270   -5.0428   -0.7910 H   0  0  0  0  0  0  0  0  0  0  0  0
    3.8305   -4.2881   -0.7601 H   0  0  0  0  0  0  0  0  0  0  0  0
    5.1865   -4.1408   -3.0654 H   0  0  0  0  0  0  0  0  0  0  0  0
    7.4151   -2.8860   -2.6919 H   0  0  0  0  0  0  0  0  0  0  0  0
    7.8929   -1.3251    0.6184 H   0  0  0  0  0  0  0  0  0  0  0  0
    8.8660   -2.0263   -0.6872 H   0  0  0  0  0  0  0  0  0  0  0  0
    8.5011   -2.9810    0.7371 H   0  0  0  0  0  0  0  0  0  0  0  0
    2.6487   -3.0632   -3.3249 H   0  0  0  0  0  0  0  0  0  0  0  0
    3.8662   -2.4913   -4.4915 H   0  0  0  0  0  0  0  0  0  0  0  0
    2.8393   -1.3278   -3.6265 H   0  0  0  0  0  0  0  0  0  0  0  0
    3.2702   -0.6569   -1.2521 H   0  0  0  0  0  0  0  0  0  0  0  0
    5.1526   -0.9623    0.6060 H   0  0  0  0  0  0  0  0  0  0  0  0
    1.9123   -1.9900   -0.1634 H   0  0  0  0  0  0  0  0  0  0  0  0
  1  2  1  0
  1 17  1  0
  1 18  1  0
  1 19  1  0
  2  3  2  0
  4  2  1  1
  4  8  1  0
  4 14  1  0
  4  5  1  0
  5  6  1  0
  5 20  1  0
  5 21  1  0
  6  7  1  0
  6 10  1  0
  6 22  1  6
  7  8  2  0
  7 23  1  0
  8  9  1  0
  9 24  1  0
  9 25  1  0
  9 26  1  0
 10 13  1  0
 10 11  1  6
 10 12  1  0
 11 27  1  0
 11 28  1  0
 11 29  1  0
 12 13  1  0
 13 14  1  0
 13 30  1  1
 14 15  1  0
 14 31  1  1
 15 16  1  0
 16 32  1  0
M  END
>  <i_m_ct_stereo_status>  (25) 
1

>  <s_m_source_file>  (25) 
/var/tmp/pbs.5076255.sched01/tmpuvpulguu/0mmv31ww_.sdf

>  <i_m_source_file_index>  (25) 
14

>  <i_lp_mmshare_version>  (25) 
48012

>  <i_f3d_flags>  (25) 
0

>  <s_epik_input>  (25) 
W0NIM11DKD1PKVtDQF0xMltDSDJdW0NASF0oW0NIXT1DMVtDSDNdKVtDQEBdMyhbQ0gzXSlbQ0BIXShPMylbQ0BIXTJPW09IXQ==

>  <s_epik_cmdline>  (25) 
J2VwaWtfcHl0aG9uJywgJy1waHQnLCAnMi4wJywgJy1waCcsICc3LjAnLCAnLXRuJywgJzgnLCAnLW1hJywgJzIwMCcsICctaW1hZScsICc8aW5maWxlLm1hZT4nLCAnLW9tYWUnLCAnPG91dGZpbGUubWFlPic=

>  <r_lp_tautomer_probability>  (25) 
1

>  <r_epik_Ionization_Penalty>  (25) 
2.32903e-05

>  <r_epik_Ionization_Penalty_Charging>  (25) 
0

>  <r_epik_Ionization_Penalty_Neutral>  (25) 
2.32903e-05

>  <r_epik_State_Penalty>  (25) 
-0

>  <r_epik_Charging_Adjusted_Penalty>  (25) 
0

>  <i_epik_Tot_Q>  (25) 
0

>  <i_epik_Tot_abs_Q>  (25) 
0

>  <s_lp_Force_Field>  (25) 
OPLS3e

>  <r_lp_Energy>  (25) 
19.0108

>  <b_lp_Chiralities_Consistent>  (25) 
1

>  <s_lp_Variant>  (25) 
8:0-1

>  <s_i_glide_gridfile>  (25) 
pfpi4k_grid

>  <i_i_glide_lignum>  (25) 
14

>  <i_i_glide_rotatable_bonds>  (25) 
3

>  <r_i_docking_score>  (25) 
-4.21493

>  <r_i_glide_ligand_efficiency>  (25) 
-0.263433

>  <r_i_glide_ligand_efficiency_sa>  (25) 
-0.663811

>  <r_i_glide_ligand_efficiency_ln>  (25) 
-1.11725

>  <r_i_glide_gscore>  (25) 
-4.21493

>  <r_i_glide_lipo>  (25) 
-0.613578

>  <r_i_glide_hbond>  (25) 
0

>  <r_i_glide_metal>  (25) 
-0

>  <r_i_glide_rewards>  (25) 
-1.96886

>  <r_i_glide_evdw>  (25) 
-20.4843

>  <r_i_glide_ecoul>  (25) 
-5.62756

>  <r_i_glide_erotb>  (25) 
0.235853

>  <r_i_glide_esite>  (25) 
0

>  <r_i_glide_emodel>  (25) 
-29.8381

>  <r_i_glide_energy>  (25) 
-26.1118

>  <r_i_glide_einternal>  (25) 
7.47775

>  <r_i_glide_intrahb_reward>  (25) 
-0

>  <i_i_glide_confnum>  (25) 
2

>  <i_i_glide_posenum>  (25) 
38

>  <r_i_glide_eff_state_penalty>  (25) 
0

>  <ligand_id>  (25) 
8

>  <original_smiles>  (25) 
CC(=O)C12CC(C=C1C)C1(C)OC1C2OO

>  <smiles>  (25) 
[H]OOC1([H])C2([H])OC2(C([H])([H])[H])C2([H])C([H])=C(C([H])([H])[H])C1(C(=O)C([H])([H])[H])C2([H])[H]

$$$$
8:0:1
     RDKit          3D

 32 34  0  0  1  0  0  0  0  0999 V2000
    6.8060   -5.7453    1.0259 C   0  0  0  0  0  0  0  0  0  0  0  0
    6.0585   -4.4410    1.3088 C   0  0  0  0  0  0  0  0  0  0  0  0
    5.8070   -4.1394    2.4791 O   0  0  0  0  0  0  0  0  0  0  0  0
    5.6640   -3.5236    0.1377 C   0  0  2  0  0  0  0  0  0  0  0  0
    4.9597   -4.2625   -1.0403 C   0  0  0  0  0  0  0  0  0  0  0  0
    5.2385   -3.3126   -2.2162 C   0  0  2  0  0  0  0  0  0  0  0  0
    6.6857   -2.9707   -1.9099 C   0  0  0  0  0  0  0  0  0  0  0  0
    6.9076   -3.0250   -0.6171 C   0  0  0  0  0  0  0  0  0  0  0  0
    8.2375   -2.6936    0.0779 C   0  0  0  0  0  0  0  0  0  0  0  0
    4.3797   -2.0603   -2.0469 C   0  0  2  0  0  0  0  0  0  0  0  0
    3.2872   -1.8543   -3.0627 C   0  0  0  0  0  0  0  0  0  0  0  0
    5.1001   -0.8848   -1.5815 O   0  0  0  0  0  0  0  0  0  0  0  0
    4.2051   -1.4986   -0.6345 C   0  0  2  0  0  0  0  0  0  0  0  0
    4.7593   -2.2975    0.5498 C   0  0  1  0  0  0  0  0  0  0  0  0
    3.6871   -2.7046    1.4133 O   0  0  0  0  0  0  0  0  0  0  0  0
    2.5480   -3.1841    0.6447 O   0  0  0  0  0  0  0  0  0  0  0  0
    7.6489   -5.5867    0.3562 H   0  0  0  0  0  0  0  0  0  0  0  0
    6.1348   -6.4718    0.5768 H   0  0  0  0  0  0  0  0  0  0  0  0
    7.1875   -6.1666    1.9527 H   0  0  0  0  0  0  0  0  0  0  0  0
    5.4508   -5.2151   -1.2238 H   0  0  0  0  0  0  0  0  0  0  0  0
    3.9168   -4.5224   -0.9240 H   0  0  0  0  0  0  0  0  0  0  0  0
    5.0904   -3.7838   -3.1920 H   0  0  0  0  0  0  0  0  0  0  0  0
    7.3801   -2.6527   -2.6868 H   0  0  0  0  0  0  0  0  0  0  0  0
    8.0877   -1.9514    0.8594 H   0  0  0  0  0  0  0  0  0  0  0  0
    8.9629   -2.2957   -0.6383 H   0  0  0  0  0  0  0  0  0  0  0  0
    8.6849   -3.5782    0.5244 H   0  0  0  0  0  0  0  0  0  0  0  0
    2.5615   -2.6713   -2.9931 H   0  0  0  0  0  0  0  0  0  0  0  0
    3.6928   -1.8206   -4.0728 H   0  0  0  0  0  0  0  0  0  0  0  0
    2.7484   -0.9209   -2.8660 H   0  0  0  0  0  0  0  0  0  0  0  0
    3.3606   -0.8461   -0.4287 H   0  0  0  0  0  0  0  0  0  0  0  0
    5.3548   -1.6152    1.1600 H   0  0  0  0  0  0  0  0  0  0  0  0
    2.9143   -3.9563    0.2479 H   0  0  0  0  0  0  0  0  0  0  0  0
  1  2  1  0
  1 17  1  0
  1 18  1  0
  1 19  1  0
  2  3  2  0
  4  2  1  1
  4  8  1  0
  4 14  1  0
  4  5  1  0
  5  6  1  0
  5 20  1  0
  5 21  1  0
  6  7  1  0
  6 10  1  0
  6 22  1  6
  7  8  2  0
  7 23  1  0
  8  9  1  0
  9 24  1  0
  9 25  1  0
  9 26  1  0
 10 13  1  0
 10 11  1  6
 10 12  1  0
 11 27  1  0
 11 28  1  0
 11 29  1  0
 12 13  1  0
 13 14  1  0
 13 30  1  1
 14 15  1  0
 14 31  1  1
 15 16  1  0
 16 32  1  0
M  END
>  <i_m_ct_stereo_status>  (26) 
1

>  <s_m_source_file>  (26) 
/var/tmp/pbs.5076255.sched01/tmpuvpulguu/0mmv31ww_.sdf

>  <i_m_source_file_index>  (26) 
14

>  <i_lp_mmshare_version>  (26) 
48012

>  <i_f3d_flags>  (26) 
0

>  <s_epik_input>  (26) 
W0NIM11DKD1PKVtDQF0xMltDSDJdW0NASF0oW0NIXT1DMVtDSDNdKVtDQEBdMyhbQ0gzXSlbQ0BIXShPMylbQ0BIXTJPW09IXQ==

>  <s_epik_cmdline>  (26) 
J2VwaWtfcHl0aG9uJywgJy1waHQnLCAnMi4wJywgJy1waCcsICc3LjAnLCAnLXRuJywgJzgnLCAnLW1hJywgJzIwMCcsICctaW1hZScsICc8aW5maWxlLm1hZT4nLCAnLW9tYWUnLCAnPG91dGZpbGUubWFlPic=

>  <r_lp_tautomer_probability>  (26) 
1

>  <r_epik_Ionization_Penalty>  (26) 
2.32903e-05

>  <r_epik_Ionization_Penalty_Charging>  (26) 
0

>  <r_epik_Ionization_Penalty_Neutral>  (26) 
2.32903e-05

>  <r_epik_State_Penalty>  (26) 
-0

>  <r_epik_Charging_Adjusted_Penalty>  (26) 
0

>  <i_epik_Tot_Q>  (26) 
0

>  <i_epik_Tot_abs_Q>  (26) 
0

>  <s_lp_Force_Field>  (26) 
OPLS3e

>  <r_lp_Energy>  (26) 
19.0108

>  <b_lp_Chiralities_Consistent>  (26) 
1

>  <s_lp_Variant>  (26) 
8:0-1

>  <s_i_glide_gridfile>  (26) 
pfpi4k_grid

>  <i_i_glide_lignum>  (26) 
14

>  <i_i_glide_rotatable_bonds>  (26) 
3

>  <r_i_docking_score>  (26) 
-3.39383

>  <r_i_glide_ligand_efficiency>  (26) 
-0.212115

>  <r_i_glide_ligand_efficiency_sa>  (26) 
-0.534495

>  <r_i_glide_ligand_efficiency_ln>  (26) 
-0.899604

>  <r_i_glide_gscore>  (26) 
-3.39383

>  <r_i_glide_lipo>  (26) 
-0.517391

>  <r_i_glide_hbond>  (26) 
0

>  <r_i_glide_metal>  (26) 
-0

>  <r_i_glide_rewards>  (26) 
-1.98788

>  <r_i_glide_evdw>  (26) 
-21.8428

>  <r_i_glide_ecoul>  (26) 
-0.889001

>  <r_i_glide_erotb>  (26) 
0.336933

>  <r_i_glide_esite>  (26) 
0

>  <r_i_glide_emodel>  (26) 
-24.5991

>  <r_i_glide_energy>  (26) 
-22.7318

>  <r_i_glide_einternal>  (26) 
7.58448

>  <r_i_glide_intrahb_reward>  (26) 
-0

>  <i_i_glide_confnum>  (26) 
2

>  <i_i_glide_posenum>  (26) 
2

>  <r_i_glide_eff_state_penalty>  (26) 
0

>  <ligand_id>  (26) 
8

>  <original_smiles>  (26) 
CC(=O)C12CC(C=C1C)C1(C)OC1C2OO

>  <smiles>  (26) 
[H]OOC1([H])C2([H])OC2(C([H])([H])[H])C2([H])C([H])=C(C([H])([H])[H])C1(C(=O)C([H])([H])[H])C2([H])[H]

$$$$
8:0:2
     RDKit          3D

 32 34  0  0  1  0  0  0  0  0999 V2000
    4.2024   -0.9955   -2.4117 C   0  0  0  0  0  0  0  0  0  0  0  0
    5.0081   -1.8163   -1.3982 C   0  0  0  0  0  0  0  0  0  0  0  0
    6.2365   -1.8563   -1.5139 O   0  0  0  0  0  0  0  0  0  0  0  0
    4.2947   -2.5416   -0.2184 C   0  0  2  0  0  0  0  0  0  0  0  0
    5.2659   -3.4288    0.6173 C   0  0  0  0  0  0  0  0  0  0  0  0
    4.3014   -4.4430    1.2674 C   0  0  2  0  0  0  0  0  0  0  0  0
    3.3709   -4.6786    0.0975 C   0  0  0  0  0  0  0  0  0  0  0  0
    3.3130   -3.6045   -0.7007 C   0  0  0  0  0  0  0  0  0  0  0  0
    2.4315   -3.4528   -1.9323 C   0  0  0  0  0  0  0  0  0  0  0  0
    3.5569   -3.7055    2.3739 C   0  0  2  0  0  0  0  0  0  0  0  0
    3.8250   -4.1651    3.7899 C   0  0  0  0  0  0  0  0  0  0  0  0
    2.2127   -3.3243    2.0582 O   0  0  0  0  0  0  0  0  0  0  0  0
    3.1664   -2.2569    2.1061 C   0  0  2  0  0  0  0  0  0  0  0  0
    3.5792   -1.5738    0.7829 C   0  0  1  0  0  0  0  0  0  0  0  0
    4.4678   -0.5182    1.1350 O   0  0  0  0  0  0  0  0  0  0  0  0
    3.6843    0.5366    1.7535 O   0  0  0  0  0  0  0  0  0  0  0  0
    3.4609   -0.3900   -1.8956 H   0  0  0  0  0  0  0  0  0  0  0  0
    3.6950   -1.6248   -3.1363 H   0  0  0  0  0  0  0  0  0  0  0  0
    4.8670   -0.3201   -2.9523 H   0  0  0  0  0  0  0  0  0  0  0  0
    5.9465   -3.9806   -0.0355 H   0  0  0  0  0  0  0  0  0  0  0  0
    5.8714   -2.8820    1.3435 H   0  0  0  0  0  0  0  0  0  0  0  0
    4.7837   -5.3524    1.6327 H   0  0  0  0  0  0  0  0  0  0  0  0
    2.7783   -5.5782   -0.0073 H   0  0  0  0  0  0  0  0  0  0  0  0
    1.8864   -2.5138   -1.9551 H   0  0  0  0  0  0  0  0  0  0  0  0
    1.6873   -4.2575   -1.9664 H   0  0  0  0  0  0  0  0  0  0  0  0
    3.0517   -3.5358   -2.8282 H   0  0  0  0  0  0  0  0  0  0  0  0
    4.8757   -3.9958    4.0488 H   0  0  0  0  0  0  0  0  0  0  0  0
    3.5923   -5.2239    3.9003 H   0  0  0  0  0  0  0  0  0  0  0  0
    3.2062   -3.5958    4.4882 H   0  0  0  0  0  0  0  0  0  0  0  0
    2.9861   -1.5971    2.9522 H   0  0  0  0  0  0  0  0  0  0  0  0
    2.6944   -1.1451    0.3087 H   0  0  0  0  0  0  0  0  0  0  0  0
    3.7200    0.2848    2.6647 H   0  0  0  0  0  0  0  0  0  0  0  0
  1  2  1  0
  1 17  1  0
  1 18  1  0
  1 19  1  0
  2  3  2  0
  4  2  1  6
  4  8  1  0
  4 14  1  0
  4  5  1  0
  5  6  1  0
  5 20  1  0
  5 21  1  0
  6  7  1  0
  6 10  1  0
  6 22  1  1
  7  8  2  0
  7 23  1  0
  8  9  1  0
  9 24  1  0
  9 25  1  0
  9 26  1  0
 10 13  1  0
 10 11  1  1
 10 12  1  0
 11 27  1  0
 11 28  1  0
 11 29  1  0
 12 13  1  0
 13 14  1  0
 13 30  1  1
 14 15  1  0
 14 31  1  6
 15 16  1  0
 16 32  1  0
M  END
>  <i_m_ct_stereo_status>  (27) 
1

>  <s_m_source_file>  (27) 
/var/tmp/pbs.5076255.sched01/tmpuvpulguu/0mmv31ww_.sdf

>  <i_m_source_file_index>  (27) 
14

>  <i_lp_mmshare_version>  (27) 
48012

>  <i_f3d_flags>  (27) 
0

>  <s_epik_input>  (27) 
W0NIM11DKD1PKVtDQF0xMltDSDJdW0NASF0oW0NIXT1DMVtDSDNdKVtDQEBdMyhbQ0gzXSlbQ0BIXShPMylbQ0BIXTJPW09IXQ==

>  <s_epik_cmdline>  (27) 
J2VwaWtfcHl0aG9uJywgJy1waHQnLCAnMi4wJywgJy1waCcsICc3LjAnLCAnLXRuJywgJzgnLCAnLW1hJywgJzIwMCcsICctaW1hZScsICc8aW5maWxlLm1hZT4nLCAnLW9tYWUnLCAnPG91dGZpbGUubWFlPic=

>  <r_lp_tautomer_probability>  (27) 
1

>  <r_epik_Ionization_Penalty>  (27) 
2.32903e-05

>  <r_epik_Ionization_Penalty_Charging>  (27) 
0

>  <r_epik_Ionization_Penalty_Neutral>  (27) 
2.32903e-05

>  <r_epik_State_Penalty>  (27) 
-0

>  <r_epik_Charging_Adjusted_Penalty>  (27) 
0

>  <i_epik_Tot_Q>  (27) 
0

>  <i_epik_Tot_abs_Q>  (27) 
0

>  <s_lp_Force_Field>  (27) 
OPLS3e

>  <r_lp_Energy>  (27) 
19.0108

>  <b_lp_Chiralities_Consistent>  (27) 
1

>  <s_lp_Variant>  (27) 
8:0-1

>  <s_i_glide_gridfile>  (27) 
pfpi4k_grid

>  <i_i_glide_lignum>  (27) 
14

>  <i_i_glide_rotatable_bonds>  (27) 
3

>  <r_i_docking_score>  (27) 
-3.02864

>  <r_i_glide_ligand_efficiency>  (27) 
-0.18929

>  <r_i_glide_ligand_efficiency_sa>  (27) 
-0.47698

>  <r_i_glide_ligand_efficiency_ln>  (27) 
-0.802801

>  <r_i_glide_gscore>  (27) 
-3.02864

>  <r_i_glide_lipo>  (27) 
-0.224328

>  <r_i_glide_hbond>  (27) 
-0.145057

>  <r_i_glide_metal>  (27) 
-0

>  <r_i_glide_rewards>  (27) 
-1.88009

>  <r_i_glide_evdw>  (27) 
-16.2631

>  <r_i_glide_ecoul>  (27) 
-1.79579

>  <r_i_glide_erotb>  (27) 
0.336933

>  <r_i_glide_esite>  (27) 
-0.0335712

>  <r_i_glide_emodel>  (27) 
-23.0239

>  <r_i_glide_energy>  (27) 
-18.0588

>  <r_i_glide_einternal>  (27) 
0.936309

>  <r_i_glide_intrahb_reward>  (27) 
-0

>  <i_i_glide_confnum>  (27) 
6

>  <i_i_glide_posenum>  (27) 
21

>  <r_i_glide_eff_state_penalty>  (27) 
0

>  <ligand_id>  (27) 
8

>  <original_smiles>  (27) 
CC(=O)C12CC(C=C1C)C1(C)OC1C2OO

>  <smiles>  (27) 
[H]OOC1([H])C2([H])OC2(C([H])([H])[H])C2([H])C([H])=C(C([H])([H])[H])C1(C(=O)C([H])([H])[H])C2([H])[H]

$$$$
9:0:0
     RDKit          3D

 66 70  0  0  1  0  0  0  0  0999 V2000
   -0.9775    0.4757    3.9212 C   0  0  0  0  0  0  0  0  0  0  0  0
    0.1446    1.5342    3.8579 C   0  0  2  0  0  0  0  0  0  0  0  0
    0.6319    1.7193    2.4113 C   0  0  0  0  0  0  0  0  0  0  0  0
    1.3948    0.4529    1.9463 C   0  0  0  0  0  0  0  0  0  0  0  0
    2.5960    0.0552    2.8691 C   0  0  1  0  0  0  0  0  0  0  0  0
    2.2074    0.0221    4.3875 C   0  0  2  0  0  0  0  0  0  0  0  0
    1.6284   -1.3250    4.9061 C   0  0  0  0  0  0  0  0  0  0  0  0
    1.8388   -2.5076    3.9833 C   0  0  0  0  0  0  0  0  0  0  0  0
    2.6094   -2.4964    2.8804 C   0  0  0  0  0  0  0  0  0  0  0  0
    2.6347   -3.7072    1.9568 C   0  0  0  0  0  0  0  0  0  0  0  0
    3.9397   -3.8031    1.1675 C   0  0  0  0  0  0  0  0  0  0  0  0
    4.5744   -4.8577    1.1798 O   0  0  0  0  0  0  0  0  0  0  0  0
    4.3854   -2.5367    0.3882 C   0  0  1  0  0  0  0  0  0  0  0  0
    4.3085   -2.7328   -1.1150 N   0  0  0  0  0  0  0  0  0  0  0  0
    5.3420   -3.7276   -1.5448 C   0  0  0  0  0  0  0  0  0  0  0  0
    2.9488   -3.2184   -1.5280 C   0  0  0  0  0  0  0  0  0  0  0  0
    2.7053   -3.2045   -3.0435 C   0  0  0  0  0  0  0  0  0  0  0  0
    2.9942   -1.8385   -3.6434 C   0  0  0  0  0  0  0  0  0  0  0  0
    4.4092   -1.4009   -3.3024 C   0  0  0  0  0  0  0  0  0  0  0  0
    4.6031   -1.4106   -1.7774 C   0  0  0  0  0  0  0  0  0  0  0  0
    3.6197   -1.2816    0.9232 C   0  0  0  0  0  0  0  0  0  0  0  0
    3.3862   -1.2398    2.4523 C   0  0  1  0  0  0  0  0  0  0  0  0
    4.7822   -1.2201    3.1294 C   0  0  0  0  0  0  0  0  0  0  0  0
    1.3772    1.2796    4.7432 C   0  0  2  0  0  0  0  0  0  0  0  0
    0.9241    1.5316    6.1847 C   0  0  0  0  0  0  0  0  0  0  0  0
   -0.0435    2.7255    6.0594 C   0  0  0  0  0  0  0  0  0  0  0  0
   -0.4027    2.7739    4.5751 C   0  0  0  0  0  0  0  0  0  0  0  0
   -1.0667    3.6683    4.0533 O   0  0  0  0  0  0  0  0  0  0  0  0
   -0.6746   -0.4932    3.5324 H   0  0  0  0  0  0  0  0  0  0  0  0
   -1.8115    0.8033    3.3051 H   0  0  0  0  0  0  0  0  0  0  0  0
   -1.3525    0.3239    4.9340 H   0  0  0  0  0  0  0  0  0  0  0  0
   -0.2020    1.9248    1.7381 H   0  0  0  0  0  0  0  0  0  0  0  0
    1.2909    2.5854    2.3346 H   0  0  0  0  0  0  0  0  0  0  0  0
    0.7108   -0.3892    1.8383 H   0  0  0  0  0  0  0  0  0  0  0  0
    1.7461    0.6615    0.9366 H   0  0  0  0  0  0  0  0  0  0  0  0
    3.2933    0.8876    2.7504 H   0  0  0  0  0  0  0  0  0  0  0  0
    3.1459    0.1455    4.9318 H   0  0  0  0  0  0  0  0  0  0  0  0
    2.0845   -1.5624    5.8693 H   0  0  0  0  0  0  0  0  0  0  0  0
    0.5609   -1.2605    5.0959 H   0  0  0  0  0  0  0  0  0  0  0  0
    1.3010   -3.4055    4.2426 H   0  0  0  0  0  0  0  0  0  0  0  0
    2.4579   -4.6227    2.5270 H   0  0  0  0  0  0  0  0  0  0  0  0
    1.8183   -3.6123    1.2400 H   0  0  0  0  0  0  0  0  0  0  0  0
    5.4314   -2.3773    0.6401 H   0  0  0  0  0  0  0  0  0  0  0  0
    5.4253   -3.8099   -2.6301 H   0  0  0  0  0  0  0  0  0  0  0  0
    5.1304   -4.7346   -1.1740 H   0  0  0  0  0  0  0  0  0  0  0  0
    6.3320   -3.4411   -1.1893 H   0  0  0  0  0  0  0  0  0  0  0  0
    2.7405   -4.2221   -1.1559 H   0  0  0  0  0  0  0  0  0  0  0  0
    2.2015   -2.5830   -1.0744 H   0  0  0  0  0  0  0  0  0  0  0  0
    3.3053   -3.9667   -3.5401 H   0  0  0  0  0  0  0  0  0  0  0  0
    1.6631   -3.4552   -3.2298 H   0  0  0  0  0  0  0  0  0  0  0  0
    2.8662   -1.8776   -4.7183 H   0  0  0  0  0  0  0  0  0  0  0  0
    2.2758   -1.1127   -3.2694 H   0  0  0  0  0  0  0  0  0  0  0  0
    5.1302   -2.0328   -3.8167 H   0  0  0  0  0  0  0  0  0  0  0  0
    4.5686   -0.3886   -3.6757 H   0  0  0  0  0  0  0  0  0  0  0  0
    3.9418   -0.6247   -1.4108 H   0  0  0  0  0  0  0  0  0  0  0  0
    5.6150   -1.0904   -1.5322 H   0  0  0  0  0  0  0  0  0  0  0  0
    4.1440   -0.3644    0.6519 H   0  0  0  0  0  0  0  0  0  0  0  0
    2.6433   -1.2480    0.4555 H   0  0  0  0  0  0  0  0  0  0  0  0
    5.3405   -0.3307    2.8335 H   0  0  0  0  0  0  0  0  0  0  0  0
    5.3939   -2.0766    2.8579 H   0  0  0  0  0  0  0  0  0  0  0  0
    4.7218   -1.2287    4.2173 H   0  0  0  0  0  0  0  0  0  0  0  0
    2.0734    2.0941    4.5312 H   0  0  0  0  0  0  0  0  0  0  0  0
    0.4040    0.6645    6.5944 H   0  0  0  0  0  0  0  0  0  0  0  0
    1.7656    1.7609    6.8412 H   0  0  0  0  0  0  0  0  0  0  0  0
   -0.9424    2.5872    6.6620 H   0  0  0  0  0  0  0  0  0  0  0  0
    0.4266    3.6660    6.3506 H   0  0  0  0  0  0  0  0  0  0  0  0
  2  1  1  6
  1 29  1  0
  1 30  1  0
  1 31  1  0
  2 24  1  0
  2 27  1  0
  2  3  1  0
  3  4  1  0
  3 32  1  0
  3 33  1  0
  4  5  1  0
  4 34  1  0
  4 35  1  0
  5 22  1  0
  5  6  1  0
  5 36  1  1
  6  7  1  0
  6 24  1  0
  6 37  1  1
  7  8  1  0
  7 38  1  0
  7 39  1  0
  8  9  2  0
  8 40  1  0
  9 22  1  0
  9 10  1  0
 10 11  1  0
 10 41  1  0
 10 42  1  0
 11 12  2  0
 11 13  1  0
 13 14  1  0
 13 21  1  0
 13 43  1  6
 14 20  1  0
 14 15  1  0
 14 16  1  0
 15 44  1  0
 15 45  1  0
 15 46  1  0
 16 17  1  0
 16 47  1  0
 16 48  1  0
 17 18  1  0
 17 49  1  0
 17 50  1  0
 18 19  1  0
 18 51  1  0
 18 52  1  0
 19 20  1  0
 19 53  1  0
 19 54  1  0
 20 55  1  0
 20 56  1  0
 21 22  1  0
 21 57  1  0
 21 58  1  0
 22 23  1  1
 23 59  1  0
 23 60  1  0
 23 61  1  0
 24 25  1  0
 24 62  1  6
 25 26  1  0
 25 63  1  0
 25 64  1  0
 26 27  1  0
 26 65  1  0
 26 66  1  0
 27 28  2  0
M  CHG  1  14   1
M  END
>  <i_m_ct_stereo_status>  (28) 
1

>  <s_m_source_file>  (28) 
/var/tmp/pbs.5076255.sched01/tmpuvpulguu/0mmv31ww_.sdf

>  <i_m_source_file_index>  (28) 
15

>  <i_lp_mmshare_version>  (28) 
48012

>  <i_f3d_flags>  (28) 
0

>  <s_epik_input>  (28) 
Tz1DMVtDSDJdW0NIMl1bQ0BIXShbQ0BAXTEyW0NIM10pW0NAQEhdM1tDQEhdKFtDSDJdW0NIMl0yKVtDQEBdNChbQ0gzXSlDKD1bQ0hdW0NIMl0zKVtDSDJdQyg9TylbQ0BIXShbQ0gyXTQpW04rXTUoW0NIM10pW0NIMl1bQ0gyXVtDSDJdW0NIMl1bQ0gyXTU=

>  <s_epik_cmdline>  (28) 
J2VwaWtfcHl0aG9uJywgJy1waHQnLCAnMi4wJywgJy1waCcsICc3LjAnLCAnLXRuJywgJzgnLCAnLW1hJywgJzIwMCcsICctaW1hZScsICc8aW5maWxlLm1hZT4nLCAnLW9tYWUnLCAnPG91dGZpbGUubWFlPic=

>  <r_lp_tautomer_probability>  (28) 
1

>  <r_epik_Ionization_Penalty>  (28) 
7.00177e-10

>  <r_epik_Ionization_Penalty_Charging>  (28) 
0

>  <r_epik_Ionization_Penalty_Neutral>  (28) 
7.00177e-10

>  <r_epik_State_Penalty>  (28) 
-0

>  <r_epik_Charging_Adjusted_Penalty>  (28) 
0

>  <i_epik_Tot_Q>  (28) 
1

>  <i_epik_Tot_abs_Q>  (28) 
1

>  <s_lp_Force_Field>  (28) 
OPLS3e

>  <r_lp_Energy>  (28) 
68.3259

>  <b_lp_Chiralities_Consistent>  (28) 
1

>  <s_lp_Variant>  (28) 
9:0-1

>  <s_i_glide_gridfile>  (28) 
pfpi4k_grid

>  <i_i_glide_lignum>  (28) 
15

>  <i_i_glide_rotatable_bonds>  (28) 
1

>  <r_i_docking_score>  (28) 
-3.15887

>  <r_i_glide_ligand_efficiency>  (28) 
-0.112817

>  <r_i_glide_ligand_efficiency_sa>  (28) 
-0.342578

>  <r_i_glide_ligand_efficiency_ln>  (28) 
-0.72916

>  <r_i_glide_gscore>  (28) 
-3.15887

>  <r_i_glide_lipo>  (28) 
-0.59539

>  <r_i_glide_hbond>  (28) 
0

>  <r_i_glide_metal>  (28) 
-0

>  <r_i_glide_rewards>  (28) 
-0.80196

>  <r_i_glide_evdw>  (28) 
-24.4707

>  <r_i_glide_ecoul>  (28) 
-4.24242

>  <r_i_glide_erotb>  (28) 
0.131469

>  <r_i_glide_esite>  (28) 
-0.0330873

>  <r_i_glide_emodel>  (28) 
-33.2879

>  <r_i_glide_energy>  (28) 
-28.7132

>  <r_i_glide_einternal>  (28) 
2.20301

>  <r_i_glide_intrahb_reward>  (28) 
-0

>  <i_i_glide_confnum>  (28) 
3

>  <i_i_glide_posenum>  (28) 
1

>  <r_i_glide_eff_state_penalty>  (28) 
0

>  <ligand_id>  (28) 
9

>  <original_smiles>  (28) 
CC12CCC3C(CC=C4CC(=O)C([N+]5(C)CCCCC5)CC43C)C1CCC2=O

>  <smiles>  (28) 
[H]C1=C2C([H])([H])C(=O)C([H])([N+]3(C([H])([H])[H])C([H])([H])C([H])([H])C([H])([H])C([H])([H])C3([H])[H])C([H])([H])C2(C([H])([H])[H])C2([H])C([H])([H])C([H])([H])C3(C([H])([H])[H])C(=O)C([H])([H])C([H])([H])C3([H])C2([H])C1([H])[H]

$$$$
9:0:1
     RDKit          3D

 66 70  0  0  1  0  0  0  0  0999 V2000
   -1.4191    0.9446    3.7745 C   0  0  0  0  0  0  0  0  0  0  0  0
   -0.2719    1.9327    4.0793 C   0  0  2  0  0  0  0  0  0  0  0  0
    0.5190    2.2427    2.7996 C   0  0  0  0  0  0  0  0  0  0  0  0
    1.3296    0.9921    2.3636 C   0  0  0  0  0  0  0  0  0  0  0  0
    2.2901    0.4404    3.4708 C   0  0  1  0  0  0  0  0  0  0  0  0
    1.5787    0.2809    4.8596 C   0  0  2  0  0  0  0  0  0  0  0  0
    0.8579   -1.0834    5.0899 C   0  0  0  0  0  0  0  0  0  0  0  0
    1.2311   -2.1695    4.1143 C   0  0  0  0  0  0  0  0  0  0  0  0
    2.2158   -2.1022    3.2199 C   0  0  0  0  0  0  0  0  0  0  0  0
    2.4181   -3.2016    2.1950 C   0  0  0  0  0  0  0  0  0  0  0  0
    3.8542   -3.3077    1.6732 C   0  0  0  0  0  0  0  0  0  0  0  0
    4.4357   -4.3765    1.7579 O   0  0  0  0  0  0  0  0  0  0  0  0
    4.5012   -1.9846    1.1625 C   0  0  1  0  0  0  0  0  0  0  0  0
    4.7374   -2.0357   -0.3246 N   0  0  0  0  0  0  0  0  0  0  0  0
    5.0495   -0.6577   -0.8057 C   0  0  0  0  0  0  0  0  0  0  0  0
    5.9245   -2.9228   -0.6120 C   0  0  0  0  0  0  0  0  0  0  0  0
    6.1843   -3.1529   -2.1209 C   0  0  0  0  0  0  0  0  0  0  0  0
    4.9346   -3.6818   -2.8187 C   0  0  0  0  0  0  0  0  0  0  0  0
    3.7455   -2.7538   -2.5795 C   0  0  0  0  0  0  0  0  0  0  0  0
    3.5212   -2.5539   -1.0608 C   0  0  0  0  0  0  0  0  0  0  0  0
    3.6680   -0.7569    1.6315 C   0  0  0  0  0  0  0  0  0  0  0  0
    3.1154   -0.8385    3.0885 C   0  0  1  0  0  0  0  0  0  0  0  0
    4.3272   -0.9602    4.0504 C   0  0  0  0  0  0  0  0  0  0  0  0
    0.7255    1.5344    5.1692 C   0  0  2  0  0  0  0  0  0  0  0  0
   -0.0230    1.6667    6.4962 C   0  0  0  0  0  0  0  0  0  0  0  0
   -0.9011    2.9113    6.3039 C   0  0  0  0  0  0  0  0  0  0  0  0
   -0.9377    3.1442    4.7806 C   0  0  0  0  0  0  0  0  0  0  0  0
   -1.4232    4.1022    4.2392 O   0  0  0  0  0  0  0  0  0  0  0  0
   -1.0661    0.0088    3.3466 H   0  0  0  0  0  0  0  0  0  0  0  0
   -2.1025    1.3793    3.0450 H   0  0  0  0  0  0  0  0  0  0  0  0
   -2.0003    0.7088    4.6628 H   0  0  0  0  0  0  0  0  0  0  0  0
   -0.1595    2.5630    2.0095 H   0  0  0  0  0  0  0  0  0  0  0  0
    1.1957    3.0800    2.9501 H   0  0  0  0  0  0  0  0  0  0  0  0
    0.6633    0.1978    2.0194 H   0  0  0  0  0  0  0  0  0  0  0  0
    1.9032    1.2839    1.4853 H   0  0  0  0  0  0  0  0  0  0  0  0
    3.0237    1.2478    3.5939 H   0  0  0  0  0  0  0  0  0  0  0  0
    2.3759    0.2977    5.6043 H   0  0  0  0  0  0  0  0  0  0  0  0
    1.0898   -1.4351    6.0950 H   0  0  0  0  0  0  0  0  0  0  0  0
   -0.2198   -0.9780    5.0512 H   0  0  0  0  0  0  0  0  0  0  0  0
    0.6229   -3.0645    4.1555 H   0  0  0  0  0  0  0  0  0  0  0  0
    2.0914   -4.1672    2.6123 H   0  0  0  0  0  0  0  0  0  0  0  0
    1.8005   -2.9893    1.3191 H   0  0  0  0  0  0  0  0  0  0  0  0
    5.4705   -1.8901    1.6588 H   0  0  0  0  0  0  0  0  0  0  0  0
    5.2876   -0.5952   -1.8814 H   0  0  0  0  0  0  0  0  0  0  0  0
    5.9260   -0.2592   -0.2886 H   0  0  0  0  0  0  0  0  0  0  0  0
    4.2083    0.0277   -0.6293 H   0  0  0  0  0  0  0  0  0  0  0  0
    6.8182   -2.4822   -0.1608 H   0  0  0  0  0  0  0  0  0  0  0  0
    5.8151   -3.9157   -0.1584 H   0  0  0  0  0  0  0  0  0  0  0  0
    6.5308   -2.2571   -2.6213 H   0  0  0  0  0  0  0  0  0  0  0  0
    7.0049   -3.8416   -2.2344 H   0  0  0  0  0  0  0  0  0  0  0  0
    5.1159   -3.8082   -3.8802 H   0  0  0  0  0  0  0  0  0  0  0  0
    4.7059   -4.6629   -2.4132 H   0  0  0  0  0  0  0  0  0  0  0  0
    3.8740   -1.8033   -3.0987 H   0  0  0  0  0  0  0  0  0  0  0  0
    2.8437   -3.1998   -3.0008 H   0  0  0  0  0  0  0  0  0  0  0  0
    3.1993   -3.5171   -0.6536 H   0  0  0  0  0  0  0  0  0  0  0  0
    2.6752   -1.8726   -0.9324 H   0  0  0  0  0  0  0  0  0  0  0  0
    4.2439    0.1613    1.5825 H   0  0  0  0  0  0  0  0  0  0  0  0
    2.8131   -0.6580    0.9848 H   0  0  0  0  0  0  0  0  0  0  0  0
    4.9579   -0.0732    3.9750 H   0  0  0  0  0  0  0  0  0  0  0  0
    4.9574   -1.8153    3.8241 H   0  0  0  0  0  0  0  0  0  0  0  0
    4.0284   -1.0735    5.0899 H   0  0  0  0  0  0  0  0  0  0  0  0
    1.4681    2.3272    5.1949 H   0  0  0  0  0  0  0  0  0  0  0  0
   -0.6475    0.7927    6.6878 H   0  0  0  0  0  0  0  0  0  0  0  0
    0.6614    1.7846    7.3390 H   0  0  0  0  0  0  0  0  0  0  0  0
   -1.9176    2.7665    6.6722 H   0  0  0  0  0  0  0  0  0  0  0  0
   -0.4834    3.7999    6.7856 H   0  0  0  0  0  0  0  0  0  0  0  0
  2  1  1  6
  1 29  1  0
  1 30  1  0
  1 31  1  0
  2 24  1  0
  2 27  1  0
  2  3  1  0
  3  4  1  0
  3 32  1  0
  3 33  1  0
  4  5  1  0
  4 34  1  0
  4 35  1  0
  5 22  1  0
  5  6  1  0
  5 36  1  1
  6  7  1  0
  6 24  1  0
  6 37  1  1
  7  8  1  0
  7 38  1  0
  7 39  1  0
  8  9  2  0
  8 40  1  0
  9 22  1  0
  9 10  1  0
 10 11  1  0
 10 41  1  0
 10 42  1  0
 11 12  2  0
 11 13  1  0
 13 14  1  0
 13 21  1  0
 13 43  1  1
 14 20  1  0
 14 15  1  0
 14 16  1  0
 15 44  1  0
 15 45  1  0
 15 46  1  0
 16 17  1  0
 16 47  1  0
 16 48  1  0
 17 18  1  0
 17 49  1  0
 17 50  1  0
 18 19  1  0
 18 51  1  0
 18 52  1  0
 19 20  1  0
 19 53  1  0
 19 54  1  0
 20 55  1  0
 20 56  1  0
 21 22  1  0
 21 57  1  0
 21 58  1  0
 22 23  1  1
 23 59  1  0
 23 60  1  0
 23 61  1  0
 24 25  1  0
 24 62  1  1
 25 26  1  0
 25 63  1  0
 25 64  1  0
 26 27  1  0
 26 65  1  0
 26 66  1  0
 27 28  2  0
M  CHG  1  14   1
M  END
>  <i_m_ct_stereo_status>  (29) 
1

>  <s_m_source_file>  (29) 
/var/tmp/pbs.5076255.sched01/tmpuvpulguu/0mmv31ww_.sdf

>  <i_m_source_file_index>  (29) 
15

>  <i_lp_mmshare_version>  (29) 
48012

>  <i_f3d_flags>  (29) 
0

>  <s_epik_input>  (29) 
Tz1DMVtDSDJdW0NIMl1bQ0BIXShbQ0BAXTEyW0NIM10pW0NAQEhdM1tDQEhdKFtDSDJdW0NIMl0yKVtDQEBdNChbQ0gzXSlDKD1bQ0hdW0NIMl0zKVtDSDJdQyg9TylbQ0BIXShbQ0gyXTQpW04rXTUoW0NIM10pW0NIMl1bQ0gyXVtDSDJdW0NIMl1bQ0gyXTU=

>  <s_epik_cmdline>  (29) 
J2VwaWtfcHl0aG9uJywgJy1waHQnLCAnMi4wJywgJy1waCcsICc3LjAnLCAnLXRuJywgJzgnLCAnLW1hJywgJzIwMCcsICctaW1hZScsICc8aW5maWxlLm1hZT4nLCAnLW9tYWUnLCAnPG91dGZpbGUubWFlPic=

>  <r_lp_tautomer_probability>  (29) 
1

>  <r_epik_Ionization_Penalty>  (29) 
7.00177e-10

>  <r_epik_Ionization_Penalty_Charging>  (29) 
0

>  <r_epik_Ionization_Penalty_Neutral>  (29) 
7.00177e-10

>  <r_epik_State_Penalty>  (29) 
-0

>  <r_epik_Charging_Adjusted_Penalty>  (29) 
0

>  <i_epik_Tot_Q>  (29) 
1

>  <i_epik_Tot_abs_Q>  (29) 
1

>  <s_lp_Force_Field>  (29) 
OPLS3e

>  <r_lp_Energy>  (29) 
68.3259

>  <b_lp_Chiralities_Consistent>  (29) 
1

>  <s_lp_Variant>  (29) 
9:0-1

>  <s_i_glide_gridfile>  (29) 
pfpi4k_grid

>  <i_i_glide_lignum>  (29) 
15

>  <i_i_glide_rotatable_bonds>  (29) 
1

>  <r_i_docking_score>  (29) 
-2.79522

>  <r_i_glide_ligand_efficiency>  (29) 
-0.0998294

>  <r_i_glide_ligand_efficiency_sa>  (29) 
-0.303141

>  <r_i_glide_ligand_efficiency_ln>  (29) 
-0.645219

>  <r_i_glide_gscore>  (29) 
-2.79522

>  <r_i_glide_lipo>  (29) 
-0.289102

>  <r_i_glide_hbond>  (29) 
0

>  <r_i_glide_metal>  (29) 
-0

>  <r_i_glide_rewards>  (29) 
-0.793377

>  <r_i_glide_evdw>  (29) 
-22.7295

>  <r_i_glide_ecoul>  (29) 
-4.47078

>  <r_i_glide_erotb>  (29) 
0.131469

>  <r_i_glide_esite>  (29) 
-0.0371184

>  <r_i_glide_emodel>  (29) 
-29.9047

>  <r_i_glide_energy>  (29) 
-27.2003

>  <r_i_glide_einternal>  (29) 
4.24536

>  <r_i_glide_intrahb_reward>  (29) 
-0

>  <i_i_glide_confnum>  (29) 
2

>  <i_i_glide_posenum>  (29) 
14

>  <r_i_glide_eff_state_penalty>  (29) 
0

>  <ligand_id>  (29) 
9

>  <original_smiles>  (29) 
CC12CCC3C(CC=C4CC(=O)C([N+]5(C)CCCCC5)CC43C)C1CCC2=O

>  <smiles>  (29) 
[H]C1=C2C([H])([H])C(=O)C([H])([N+]3(C([H])([H])[H])C([H])([H])C([H])([H])C([H])([H])C([H])([H])C3([H])[H])C([H])([H])C2(C([H])([H])[H])C2([H])C([H])([H])C([H])([H])C3(C([H])([H])[H])C(=O)C([H])([H])C([H])([H])C3([H])C2([H])C1([H])[H]

$$$$
9:0:2
     RDKit          3D

 66 70  0  0  1  0  0  0  0  0999 V2000
    6.3604   -1.2259    0.5211 C   0  0  0  0  0  0  0  0  0  0  0  0
    5.2030   -2.1848    0.1564 C   0  0  2  0  0  0  0  0  0  0  0  0
    3.9529   -1.3907   -0.2535 C   0  0  0  0  0  0  0  0  0  0  0  0
    3.3572   -0.6940    0.9942 C   0  0  0  0  0  0  0  0  0  0  0  0
    3.0161   -1.6729    2.1684 C   0  0  1  0  0  0  0  0  0  0  0  0
    4.2011   -2.6433    2.5108 C   0  0  2  0  0  0  0  0  0  0  0  0
    5.2455   -2.0982    3.5211 C   0  0  0  0  0  0  0  0  0  0  0  0
    4.8092   -0.8759    4.2987 C   0  0  0  0  0  0  0  0  0  0  0  0
    3.5703   -0.3716    4.2856 C   0  0  0  0  0  0  0  0  0  0  0  0
    3.2782    0.9491    5.0026 C   0  0  0  0  0  0  0  0  0  0  0  0
    1.8091    1.0856    5.4278 C   0  0  0  0  0  0  0  0  0  0  0  0
    1.5390    1.2979    6.6045 O   0  0  0  0  0  0  0  0  0  0  0  0
    0.7385    0.8152    4.3390 C   0  0  1  0  0  0  0  0  0  0  0  0
   -0.0116    2.0760    3.9800 N   0  0  0  0  0  0  0  0  0  0  0  0
    0.9227    3.1647    3.5256 C   0  0  0  0  0  0  0  0  0  0  0  0
   -0.9727    1.7283    2.8761 C   0  0  0  0  0  0  0  0  0  0  0  0
   -1.9803    2.8380    2.5348 C   0  0  0  0  0  0  0  0  0  0  0  0
   -2.7652    3.3011    3.7397 C   0  0  0  0  0  0  0  0  0  0  0  0
   -1.8078    3.6837    4.8670 C   0  0  0  0  0  0  0  0  0  0  0  0
   -0.8055    2.5390    5.1747 C   0  0  0  0  0  0  0  0  0  0  0  0
    1.3756    0.0831    3.1202 C   0  0  0  0  0  0  0  0  0  0  0  0
    2.4282   -1.0043    3.4687 C   0  0  1  0  0  0  0  0  0  0  0  0
    1.7147   -2.0954    4.3118 C   0  0  0  0  0  0  0  0  0  0  0  0
    4.7942   -3.2247    1.2080 C   0  0  2  0  0  0  0  0  0  0  0  0
    5.9210   -4.2530    1.2556 C   0  0  0  0  0  0  0  0  0  0  0  0
    6.3468   -4.3839   -0.2130 C   0  0  0  0  0  0  0  0  0  0  0  0
    5.7793   -3.1322   -0.9077 C   0  0  0  0  0  0  0  0  0  0  0  0
    5.8027   -2.9193   -2.1052 O   0  0  0  0  0  0  0  0  0  0  0  0
    6.1096   -0.5519    1.3378 H   0  0  0  0  0  0  0  0  0  0  0  0
    6.6095   -0.5915   -0.3311 H   0  0  0  0  0  0  0  0  0  0  0  0
    7.2676   -1.7643    0.8035 H   0  0  0  0  0  0  0  0  0  0  0  0
    4.1853   -0.6555   -1.0252 H   0  0  0  0  0  0  0  0  0  0  0  0
    3.2039   -2.0497   -0.6894 H   0  0  0  0  0  0  0  0  0  0  0  0
    4.0186    0.0972    1.3490 H   0  0  0  0  0  0  0  0  0  0  0  0
    2.4534   -0.1917    0.6607 H   0  0  0  0  0  0  0  0  0  0  0  0
    2.2151   -2.2957    1.7599 H   0  0  0  0  0  0  0  0  0  0  0  0
    3.7485   -3.4999    3.0169 H   0  0  0  0  0  0  0  0  0  0  0  0
    5.4917   -2.8805    4.2351 H   0  0  0  0  0  0  0  0  0  0  0  0
    6.1701   -1.8356    3.0273 H   0  0  0  0  0  0  0  0  0  0  0  0
    5.5752   -0.3932    4.8795 H   0  0  0  0  0  0  0  0  0  0  0  0
    3.9406    1.0559    5.8665 H   0  0  0  0  0  0  0  0  0  0  0  0
    3.4942    1.7767    4.3244 H   0  0  0  0  0  0  0  0  0  0  0  0
    0.0281    0.1060    4.7710 H   0  0  0  0  0  0  0  0  0  0  0  0
    0.4048    4.1031    3.2806 H   0  0  0  0  0  0  0  0  0  0  0  0
    1.4667    2.8949    2.6163 H   0  0  0  0  0  0  0  0  0  0  0  0
    1.6607    3.4229    4.2925 H   0  0  0  0  0  0  0  0  0  0  0  0
   -0.4521    1.5028    1.9454 H   0  0  0  0  0  0  0  0  0  0  0  0
   -1.5444    0.8384    3.1421 H   0  0  0  0  0  0  0  0  0  0  0  0
   -1.4652    3.6849    2.0842 H   0  0  0  0  0  0  0  0  0  0  0  0
   -2.6937    2.4650    1.7966 H   0  0  0  0  0  0  0  0  0  0  0  0
   -3.3809    4.1344    3.4103 H   0  0  0  0  0  0  0  0  0  0  0  0
   -3.4220    2.5051    4.0753 H   0  0  0  0  0  0  0  0  0  0  0  0
   -1.2659    4.5957    4.6194 H   0  0  0  0  0  0  0  0  0  0  0  0
   -2.3796    3.9120    5.7682 H   0  0  0  0  0  0  0  0  0  0  0  0
   -1.3849    1.7073    5.5883 H   0  0  0  0  0  0  0  0  0  0  0  0
   -0.1475    2.8879    5.9805 H   0  0  0  0  0  0  0  0  0  0  0  0
    0.6179   -0.4031    2.5020 H   0  0  0  0  0  0  0  0  0  0  0  0
    1.8747    0.8303    2.5111 H   0  0  0  0  0  0  0  0  0  0  0  0
    0.9126   -2.5570    3.7359 H   0  0  0  0  0  0  0  0  0  0  0  0
    1.2647   -1.6937    5.2149 H   0  0  0  0  0  0  0  0  0  0  0  0
    2.3927   -2.8801    4.6391 H   0  0  0  0  0  0  0  0  0  0  0  0
    3.9510   -3.7627    0.7801 H   0  0  0  0  0  0  0  0  0  0  0  0
    6.7604   -3.9060    1.8562 H   0  0  0  0  0  0  0  0  0  0  0  0
    5.5883   -5.2086    1.6584 H   0  0  0  0  0  0  0  0  0  0  0  0
    7.4323   -4.4036   -0.3199 H   0  0  0  0  0  0  0  0  0  0  0  0
    5.9224   -5.2742   -0.6845 H   0  0  0  0  0  0  0  0  0  0  0  0
  2  1  1  1
  1 29  1  0
  1 30  1  0
  1 31  1  0
  2 24  1  0
  2 27  1  0
  2  3  1  0
  3  4  1  0
  3 32  1  0
  3 33  1  0
  4  5  1  0
  4 34  1  0
  4 35  1  0
  5 22  1  0
  5  6  1  0
  5 36  1  6
  6  7  1  0
  6 24  1  0
  6 37  1  1
  7  8  1  0
  7 38  1  0
  7 39  1  0
  8  9  2  0
  8 40  1  0
  9 22  1  0
  9 10  1  0
 10 11  1  0
 10 41  1  0
 10 42  1  0
 11 12  2  0
 11 13  1  0
 13 14  1  0
 13 21  1  0
 13 43  1  1
 14 20  1  0
 14 15  1  0
 14 16  1  0
 15 44  1  0
 15 45  1  0
 15 46  1  0
 16 17  1  0
 16 47  1  0
 16 48  1  0
 17 18  1  0
 17 49  1  0
 17 50  1  0
 18 19  1  0
 18 51  1  0
 18 52  1  0
 19 20  1  0
 19 53  1  0
 19 54  1  0
 20 55  1  0
 20 56  1  0
 21 22  1  0
 21 57  1  0
 21 58  1  0
 22 23  1  1
 23 59  1  0
 23 60  1  0
 23 61  1  0
 24 25  1  0
 24 62  1  6
 25 26  1  0
 25 63  1  0
 25 64  1  0
 26 27  1  0
 26 65  1  0
 26 66  1  0
 27 28  2  0
M  CHG  1  14   1
M  END
>  <i_m_ct_stereo_status>  (30) 
1

>  <s_m_source_file>  (30) 
/var/tmp/pbs.5076255.sched01/tmpuvpulguu/0mmv31ww_.sdf

>  <i_m_source_file_index>  (30) 
15

>  <i_lp_mmshare_version>  (30) 
48012

>  <i_f3d_flags>  (30) 
0

>  <s_epik_input>  (30) 
Tz1DMVtDSDJdW0NIMl1bQ0BIXShbQ0BAXTEyW0NIM10pW0NAQEhdM1tDQEhdKFtDSDJdW0NIMl0yKVtDQEBdNChbQ0gzXSlDKD1bQ0hdW0NIMl0zKVtDSDJdQyg9TylbQ0BIXShbQ0gyXTQpW04rXTUoW0NIM10pW0NIMl1bQ0gyXVtDSDJdW0NIMl1bQ0gyXTU=

>  <s_epik_cmdline>  (30) 
J2VwaWtfcHl0aG9uJywgJy1waHQnLCAnMi4wJywgJy1waCcsICc3LjAnLCAnLXRuJywgJzgnLCAnLW1hJywgJzIwMCcsICctaW1hZScsICc8aW5maWxlLm1hZT4nLCAnLW9tYWUnLCAnPG91dGZpbGUubWFlPic=

>  <r_lp_tautomer_probability>  (30) 
1

>  <r_epik_Ionization_Penalty>  (30) 
7.00177e-10

>  <r_epik_Ionization_Penalty_Charging>  (30) 
0

>  <r_epik_Ionization_Penalty_Neutral>  (30) 
7.00177e-10

>  <r_epik_State_Penalty>  (30) 
-0

>  <r_epik_Charging_Adjusted_Penalty>  (30) 
0

>  <i_epik_Tot_Q>  (30) 
1

>  <i_epik_Tot_abs_Q>  (30) 
1

>  <s_lp_Force_Field>  (30) 
OPLS3e

>  <r_lp_Energy>  (30) 
68.3259

>  <b_lp_Chiralities_Consistent>  (30) 
1

>  <s_lp_Variant>  (30) 
9:0-1

>  <s_i_glide_gridfile>  (30) 
pfpi4k_grid

>  <i_i_glide_lignum>  (30) 
15

>  <i_i_glide_rotatable_bonds>  (30) 
1

>  <r_i_docking_score>  (30) 
-2.58971

>  <r_i_glide_ligand_efficiency>  (30) 
-0.0924897

>  <r_i_glide_ligand_efficiency_sa>  (30) 
-0.280853

>  <r_i_glide_ligand_efficiency_ln>  (30) 
-0.597782

>  <r_i_glide_gscore>  (30) 
-2.58971

>  <r_i_glide_lipo>  (30) 
-0.332148

>  <r_i_glide_hbond>  (30) 
0

>  <r_i_glide_metal>  (30) 
-0

>  <r_i_glide_rewards>  (30) 
-0.864793

>  <r_i_glide_evdw>  (30) 
-20.8315

>  <r_i_glide_ecoul>  (30) 
-3.02019

>  <r_i_glide_erotb>  (30) 
0.131469

>  <r_i_glide_esite>  (30) 
-0.0296375

>  <r_i_glide_emodel>  (30) 
-28.3216

>  <r_i_glide_energy>  (30) 
-23.8517

>  <r_i_glide_einternal>  (30) 
0.215162

>  <r_i_glide_intrahb_reward>  (30) 
-0

>  <i_i_glide_confnum>  (30) 
1

>  <i_i_glide_posenum>  (30) 
21

>  <r_i_glide_eff_state_penalty>  (30) 
0

>  <ligand_id>  (30) 
9

>  <original_smiles>  (30) 
CC12CCC3C(CC=C4CC(=O)C([N+]5(C)CCCCC5)CC43C)C1CCC2=O

>  <smiles>  (30) 
[H]C1=C2C([H])([H])C(=O)C([H])([N+]3(C([H])([H])[H])C([H])([H])C([H])([H])C([H])([H])C([H])([H])C3([H])[H])C([H])([H])C2(C([H])([H])[H])C2([H])C([H])([H])C([H])([H])C3(C([H])([H])[H])C(=O)C([H])([H])C([H])([H])C3([H])C2([H])C1([H])[H]

$$$$
10:0:0
     RDKit          3D

 92 98  0  0  1  0  0  0  0  0999 V2000
    5.2238   -0.8942    8.3295 C   0  0  0  0  0  0  0  0  0  0  0  0
    4.1149   -1.0896    7.5806 C   0  0  0  0  0  0  0  0  0  0  0  0
    2.6319   -1.0082    7.9441 C   0  0  0  0  0  0  0  0  0  0  0  0
    2.3919   -1.3798    9.4238 C   0  0  0  0  0  0  0  0  0  0  0  0
    2.0523    0.3992    7.7472 C   0  0  0  0  0  0  0  0  0  0  0  0
    2.5583   -2.1141    6.8515 C   0  0  2  0  0  0  0  0  0  0  0  0
    3.9328   -1.7654    6.2145 C   0  0  1  0  0  0  0  0  0  0  0  0
    4.1673   -0.6055    5.2011 C   0  0  0  0  0  0  0  0  0  0  0  0
    5.5314   -0.2113    5.0956 O   0  0  0  0  0  0  0  0  0  0  0  0
    5.9920    0.9083    5.6669 C   0  0  0  0  0  0  0  0  0  0  0  0
    7.4751    1.0879    5.3837 C   0  0  0  0  0  0  0  0  0  0  0  0
    5.3596    1.7119    6.3354 O   0  0  0  0  0  0  0  0  0  0  0  0
    4.8232   -3.0161    5.8649 C   0  0  1  0  0  0  0  0  0  0  0  0
    5.1917   -3.7843    6.9831 O   0  0  0  0  0  0  0  0  0  0  0  0
    4.2710   -3.8776    4.6306 C   0  0  2  0  0  0  0  0  0  0  0  0
    5.4155   -4.1060    3.8561 O   0  0  0  0  0  0  0  0  0  0  0  0
    3.4442   -2.9717    3.9291 O   0  0  0  0  0  0  0  0  0  0  0  0
    2.0202   -3.0908    3.8227 C   0  0  2  0  0  0  0  0  0  0  0  0
    1.3179   -1.7280    3.7572 C   0  0  0  0  0  0  0  0  0  0  0  0
    0.7940   -1.4268    5.1785 C   0  0  1  0  0  0  0  0  0  0  0  0
   -0.7124   -1.0909    5.1289 C   0  0  0  0  0  0  0  0  0  0  0  0
    1.2767   -2.5924    6.0977 C   0  0  2  0  0  0  0  0  0  0  0  0
    0.3191   -3.1547    7.1856 C   0  0  1  0  0  0  0  0  0  0  0  0
   -0.9895   -3.4797    6.7601 O   0  0  0  0  0  0  0  0  0  0  0  0
    0.8991   -4.4598    7.8023 C   0  0  0  0  0  0  0  0  0  0  0  0
    2.0798   -5.1606    7.0402 C   0  0  1  0  0  0  0  0  0  0  0  0
    2.2739   -6.3212    7.8055 O   0  0  0  0  0  0  0  0  0  0  0  0
    2.0038   -5.1644    5.4471 C   0  0  2  0  0  0  0  0  0  0  0  0
    0.9608   -6.3522    5.1062 C   0  0  1  0  0  0  0  0  0  0  0  0
    0.3366   -6.4096    3.6555 C   0  0  0  0  0  0  0  0  0  0  0  0
    0.2243   -7.8548    3.0153 C   0  0  1  0  0  0  0  0  0  0  0  0
   -0.2015   -7.6745    1.6841 O   0  0  0  0  0  0  0  0  0  0  0  0
    1.5113   -8.7925    3.1105 C   0  0  0  0  0  0  0  0  0  0  0  0
    1.0864  -10.2518    3.3847 C   0  0  0  0  0  0  0  0  0  0  0  0
    2.3529   -8.8007    1.8041 C   0  0  0  0  0  0  0  0  0  0  0  0
    2.3291   -8.2352    4.3042 C   0  0  0  0  0  0  0  0  0  0  0  0
    3.8539   -8.0101    4.5428 C   0  0  0  0  0  0  0  0  0  0  0  0
    4.2740   -6.5632    5.1085 C   0  0  0  0  0  0  0  0  0  0  0  0
    3.4405   -5.2732    4.6845 C   0  0  2  0  0  0  0  0  0  0  0  0
    3.2775   -5.5107    3.2819 O   0  0  0  0  0  0  0  0  0  0  0  0
    1.4434   -7.7926    5.4368 C   0  0  0  0  0  0  0  0  0  0  0  0
    1.4158   -3.7549    5.0521 C   0  0  2  0  0  0  0  0  0  0  0  0
    6.1988   -1.1166    7.8948 H   0  0  0  0  0  0  0  0  0  0  0  0
    5.1402   -0.4547    9.3265 H   0  0  0  0  0  0  0  0  0  0  0  0
    1.3346   -1.4449    9.6444 H   0  0  0  0  0  0  0  0  0  0  0  0
    2.8068   -0.6281   10.0933 H   0  0  0  0  0  0  0  0  0  0  0  0
    2.8458   -2.3295    9.6882 H   0  0  0  0  0  0  0  0  0  0  0  0
    0.9661    0.3678    7.7085 H   0  0  0  0  0  0  0  0  0  0  0  0
    2.3820    0.9050    6.8362 H   0  0  0  0  0  0  0  0  0  0  0  0
    2.3222    1.0685    8.5683 H   0  0  0  0  0  0  0  0  0  0  0  0
    2.7923   -2.8912    7.5366 H   0  0  0  0  0  0  0  0  0  0  0  0
    3.9396   -0.8786    4.1853 H   0  0  0  0  0  0  0  0  0  0  0  0
    3.5245    0.2545    5.3800 H   0  0  0  0  0  0  0  0  0  0  0  0
    7.9884    0.1547    5.5951 H   0  0  0  0  0  0  0  0  0  0  0  0
    7.8704    1.8702    6.0287 H   0  0  0  0  0  0  0  0  0  0  0  0
    7.6395    1.3467    4.3385 H   0  0  0  0  0  0  0  0  0  0  0  0
    5.7944   -2.6427    5.5317 H   0  0  0  0  0  0  0  0  0  0  0  0
    4.4158   -4.2342    7.3104 H   0  0  0  0  0  0  0  0  0  0  0  0
    5.1364   -4.4615    2.9918 H   0  0  0  0  0  0  0  0  0  0  0  0
    1.7675   -3.6290    2.9088 H   0  0  0  0  0  0  0  0  0  0  0  0
    1.9438   -0.9354    3.3422 H   0  0  0  0  0  0  0  0  0  0  0  0
    0.4722   -1.8006    3.0715 H   0  0  0  0  0  0  0  0  0  0  0  0
    1.2777   -0.5100    5.4826 H   0  0  0  0  0  0  0  0  0  0  0  0
   -1.2995   -1.9116    4.7119 H   0  0  0  0  0  0  0  0  0  0  0  0
   -0.8872   -0.2184    4.4938 H   0  0  0  0  0  0  0  0  0  0  0  0
   -1.1020   -0.8502    6.1180 H   0  0  0  0  0  0  0  0  0  0  0  0
    0.1885   -2.4144    7.9731 H   0  0  0  0  0  0  0  0  0  0  0  0
   -0.9170   -4.1852    6.1193 H   0  0  0  0  0  0  0  0  0  0  0  0
    1.2741   -4.2268    8.8016 H   0  0  0  0  0  0  0  0  0  0  0  0
    0.0958   -5.1841    7.9759 H   0  0  0  0  0  0  0  0  0  0  0  0
    3.0283   -4.7360    7.2810 H   0  0  0  0  0  0  0  0  0  0  0  0
    3.0260   -6.7955    7.4619 H   0  0  0  0  0  0  0  0  0  0  0  0
    0.1050   -6.1959    5.7681 H   0  0  0  0  0  0  0  0  0  0  0  0
   -0.6543   -5.9752    3.6946 H   0  0  0  0  0  0  0  0  0  0  0  0
    0.8837   -5.7570    2.9758 H   0  0  0  0  0  0  0  0  0  0  0  0
   -0.5740   -8.3661    3.5549 H   0  0  0  0  0  0  0  0  0  0  0  0
   -0.1773   -8.5229    1.2401 H   0  0  0  0  0  0  0  0  0  0  0  0
    1.9534  -10.9095    3.5190 H   0  0  0  0  0  0  0  0  0  0  0  0
    0.4910  -10.6471    2.5559 H   0  0  0  0  0  0  0  0  0  0  0  0
    0.4718  -10.3336    4.2833 H   0  0  0  0  0  0  0  0  0  0  0  0
    3.2644   -9.3956    1.9276 H   0  0  0  0  0  0  0  0  0  0  0  0
    2.6380   -7.7897    1.5046 H   0  0  0  0  0  0  0  0  0  0  0  0
    1.8136   -9.2474    0.9672 H   0  0  0  0  0  0  0  0  0  0  0  0
    2.4203   -7.4201    3.6677 H   0  0  0  0  0  0  0  0  0  0  0  0
    4.2275   -8.7829    5.2217 H   0  0  0  0  0  0  0  0  0  0  0  0
    4.3809   -8.1686    3.5973 H   0  0  0  0  0  0  0  0  0  0  0  0
    4.3045   -6.6243    6.1982 H   0  0  0  0  0  0  0  0  0  0  0  0
    5.3295   -6.4354    4.8445 H   0  0  0  0  0  0  0  0  0  0  0  0
    4.0809   -5.8697    2.9160 H   0  0  0  0  0  0  0  0  0  0  0  0
    1.9597   -8.0004    6.3572 H   0  0  0  0  0  0  0  0  0  0  0  0
    0.5682   -8.4362    5.5202 H   0  0  0  0  0  0  0  0  0  0  0  0
    0.3963   -3.9747    4.7263 H   0  0  0  0  0  0  0  0  0  0  0  0
  1  2  2  0
  1 43  1  0
  1 44  1  0
  2  7  1  0
  2  3  1  0
  3  4  1  0
  3  5  1  0
  3  6  1  0
  4 45  1  0
  4 46  1  0
  4 47  1  0
  5 48  1  0
  5 49  1  0
  5 50  1  0
  6 22  1  0
  6  7  1  0
  6 51  1  1
  7  8  1  6
  7 13  1  0
  8  9  1  0
  8 52  1  0
  8 53  1  0
  9 10  1  0
 10 11  1  0
 10 12  2  0
 11 54  1  0
 11 55  1  0
 11 56  1  0
 13 14  1  0
 13 15  1  0
 13 57  1  6
 14 58  1  0
 15 39  1  0
 15 16  1  6
 15 17  1  0
 16 59  1  0
 17 18  1  0
 18 42  1  0
 18 19  1  0
 18 60  1  6
 19 20  1  0
 19 61  1  0
 19 62  1  0
 20 21  1  0
 22 20  1  6
 20 63  1  1
 21 64  1  0
 21 65  1  0
 21 66  1  0
 22 42  1  0
 22 23  1  0
 23 24  1  0
 23 25  1  0
 23 67  1  1
 24 68  1  0
 25 26  1  0
 25 69  1  0
 25 70  1  0
 26 27  1  0
 26 28  1  0
 26 71  1  6
 27 72  1  0
 28 39  1  6
 28 29  1  0
 28 42  1  0
 29 41  1  0
 29 30  1  0
 29 73  1  1
 30 31  1  0
 30 74  1  0
 30 75  1  0
 31 32  1  0
 31 33  1  0
 31 76  1  1
 32 77  1  0
 33 34  1  0
 33 35  1  0
 33 36  1  0
 34 78  1  0
 34 79  1  0
 34 80  1  0
 35 81  1  0
 35 82  1  0
 35 83  1  0
 36 37  1  0
 36 41  1  0
 36 84  1  0
 37 38  1  0
 37 85  1  0
 37 86  1  0
 38 39  1  0
 38 87  1  0
 38 88  1  0
 39 40  1  6
 40 89  1  0
 41 90  1  0
 41 91  1  0
 42 92  1  6
M  END
>  <i_m_ct_stereo_status>  (31) 
1

>  <s_m_source_file>  (31) 
/var/tmp/pbs.5076255.sched01/tmpuvpulguu/0mmv31ww_.sdf

>  <i_m_source_file_index>  (31) 
16

>  <i_lp_mmshare_version>  (31) 
48012

>  <i_f3d_flags>  (31) 
0

>  <s_epik_input>  (31) 
W0NIM11DKD1PKU9bQ0gyXVtDQF0oW0NAQEhdMVtDQF0yMzQpKEMoPVtDSDJdKUMxKFtDSDNdKVtDSDNdKVtDQEBIXShbT0hdKVtDQEBdNShbT0hdKVtDQF02KFtPSF0pW0NAQF0oW0NASF0oW09IXSlbQ0gyXVtDQEBIXTNbT0hdKShbQ0hdNFtDSF0oTzUpW0NIMl1bQ0BIXTJbQ0gzXSlbQ0hdN1tDSDJdW0NAQEhdKFtPSF0pQyhbQ0gzXSkoW0NIM10pW0NAQEhdKFtDSDJdNylbQ0gyXVtDSDJdNg==

>  <s_epik_cmdline>  (31) 
J2VwaWtfcHl0aG9uJywgJy1waHQnLCAnMi4wJywgJy1waCcsICc3LjAnLCAnLXRuJywgJzgnLCAnLW1hJywgJzIwMCcsICctaW1hZScsICc8aW5maWxlLm1hZT4nLCAnLW9tYWUnLCAnPG91dGZpbGUubWFlPic=

>  <r_lp_tautomer_probability>  (31) 
1

>  <r_epik_Ionization_Penalty>  (31) 
3.51432e-06

>  <r_epik_Ionization_Penalty_Charging>  (31) 
0

>  <r_epik_Ionization_Penalty_Neutral>  (31) 
3.51432e-06

>  <r_epik_State_Penalty>  (31) 
-0

>  <r_epik_Charging_Adjusted_Penalty>  (31) 
0

>  <i_epik_Tot_Q>  (31) 
0

>  <i_epik_Tot_abs_Q>  (31) 
0

>  <s_epik_Chemistry_Notes>  (31) 
This compound has an ester and may undergo hydrolysis at high or low pH.

>  <s_lp_Force_Field>  (31) 
OPLS3e

>  <r_lp_Energy>  (31) 
210.864

>  <b_lp_Chiralities_Consistent>  (31) 
1

>  <s_lp_Variant>  (31) 
10:0-1

>  <s_i_glide_gridfile>  (31) 
pfpi4k_grid

>  <i_i_glide_lignum>  (31) 
16

>  <i_i_glide_rotatable_bonds>  (31) 
9

>  <r_i_docking_score>  (31) 
-2.58926

>  <r_i_glide_ligand_efficiency>  (31) 
-0.061649

>  <r_i_glide_ligand_efficiency_sa>  (31) 
-0.214294

>  <r_i_glide_ligand_efficiency_ln>  (31) 
-0.546526

>  <r_i_glide_gscore>  (31) 
-2.58926

>  <r_i_glide_lipo>  (31) 
-0.209287

>  <r_i_glide_hbond>  (31) 
-0.32

>  <r_i_glide_metal>  (31) 
-0

>  <r_i_glide_rewards>  (31) 
-0.128575

>  <r_i_glide_evdw>  (31) 
-22.0317

>  <r_i_glide_ecoul>  (31) 
-5.60618

>  <r_i_glide_erotb>  (31) 
0.011114

>  <r_i_glide_esite>  (31) 
0

>  <r_i_glide_emodel>  (31) 
-32.379

>  <r_i_glide_energy>  (31) 
-27.6379

>  <r_i_glide_einternal>  (31) 
1.07413

>  <r_i_glide_intrahb_reward>  (31) 
-0

>  <i_i_glide_confnum>  (31) 
1

>  <i_i_glide_posenum>  (31) 
22

>  <r_i_glide_eff_state_penalty>  (31) 
0

>  <ligand_id>  (31) 
10

>  <original_smiles>  (31) 
C=C1C(C)(C)C2C1(COC(C)=O)C(O)C1(O)OC3CC(C)C24C(O)CC(O)C2(C5CC(O)C(C)(C)C(CCC12O)C5)C34

>  <smiles>  (31) 
[H]OC1([H])C2(O[H])OC3([H])C([H])([H])C([H])(C([H])([H])[H])C4(C([H])(O[H])C([H])([H])C([H])(O[H])C5(C6([H])C([H])([H])C([H])(O[H])C(C([H])([H])[H])(C([H])([H])[H])C([H])(C([H])([H])C([H])([H])C25O[H])C6([H])[H])C34[H])C2([H])C(C([H])([H])[H])(C([H])([H])[H])C(=C([H])[H])C12C([H])([H])OC(=O)C([H])([H])[H]

$$$$
10:0:1
     RDKit          3D

 92 98  0  0  1  0  0  0  0  0999 V2000
    2.4074   -0.3065    6.5369 C   0  0  0  0  0  0  0  0  0  0  0  0
    2.0909   -1.6020    6.6471 C   0  0  0  0  0  0  0  0  0  0  0  0
    2.1614   -2.5755    7.8361 C   0  0  0  0  0  0  0  0  0  0  0  0
    3.3653   -2.2965    8.7569 C   0  0  0  0  0  0  0  0  0  0  0  0
    0.9131   -2.5674    8.7285 C   0  0  0  0  0  0  0  0  0  0  0  0
    2.3479   -3.6004    6.6756 C   0  0  2  0  0  0  0  0  0  0  0  0
    1.7572   -2.6669    5.5867 C   0  0  1  0  0  0  0  0  0  0  0  0
    0.2333   -2.4854    5.3358 C   0  0  0  0  0  0  0  0  0  0  0  0
   -0.0602   -1.2530    4.6953 O   0  0  0  0  0  0  0  0  0  0  0  0
   -1.2406   -0.6550    4.8953 C   0  0  0  0  0  0  0  0  0  0  0  0
   -1.3875    0.6144    4.0765 C   0  0  0  0  0  0  0  0  0  0  0  0
   -2.1344   -1.0464    5.6542 O   0  0  0  0  0  0  0  0  0  0  0  0
    2.5712   -2.6736    4.2371 C   0  0  1  0  0  0  0  0  0  0  0  0
    3.9131   -2.2485    4.3907 O   0  0  0  0  0  0  0  0  0  0  0  0
    2.4355   -4.0182    3.3866 C   0  0  2  0  0  0  0  0  0  0  0  0
    2.2219   -3.5502    2.0663 O   0  0  0  0  0  0  0  0  0  0  0  0
    1.2241   -4.5988    3.8345 O   0  0  0  0  0  0  0  0  0  0  0  0
    1.1858   -5.8094    4.6089 C   0  0  2  0  0  0  0  0  0  0  0  0
    0.0429   -5.8082    5.6348 C   0  0  0  0  0  0  0  0  0  0  0  0
    0.6564   -5.4694    7.0087 C   0  0  1  0  0  0  0  0  0  0  0  0
    0.2740   -6.5337    8.0534 C   0  0  0  0  0  0  0  0  0  0  0  0
    2.1725   -5.1664    6.7593 C   0  0  2  0  0  0  0  0  0  0  0  0
    3.2366   -5.6821    7.7720 C   0  0  1  0  0  0  0  0  0  0  0  0
    3.1286   -7.0481    8.1352 O   0  0  0  0  0  0  0  0  0  0  0  0
    4.6760   -5.4888    7.2116 C   0  0  0  0  0  0  0  0  0  0  0  0
    4.8223   -5.1993    5.6774 C   0  0  1  0  0  0  0  0  0  0  0  0
    6.2160   -5.1874    5.4754 O   0  0  0  0  0  0  0  0  0  0  0  0
    3.8190   -5.9681    4.7004 C   0  0  2  0  0  0  0  0  0  0  0  0
    4.4530   -7.4517    4.5660 C   0  0  1  0  0  0  0  0  0  0  0  0
    3.5496   -8.6246    3.9955 C   0  0  0  0  0  0  0  0  0  0  0  0
    4.2788   -9.6149    2.9902 C   0  0  1  0  0  0  0  0  0  0  0  0
    3.3074  -10.5062    2.4795 O   0  0  0  0  0  0  0  0  0  0  0  0
    5.1500   -8.9435    1.8249 C   0  0  0  0  0  0  0  0  0  0  0  0
    6.4258   -9.7767    1.5807 C   0  0  0  0  0  0  0  0  0  0  0  0
    4.3681   -8.8626    0.4892 C   0  0  0  0  0  0  0  0  0  0  0  0
    5.5255   -7.5298    2.3421 C   0  0  2  0  0  0  0  0  0  0  0  0
    5.5815   -6.1253    1.6613 C   0  0  0  0  0  0  0  0  0  0  0  0
    4.8463   -4.9300    2.4411 C   0  0  0  0  0  0  0  0  0  0  0  0
    3.5222   -5.2226    3.2778 C   0  0  2  0  0  0  0  0  0  0  0  0
    2.8169   -6.0618    2.3580 O   0  0  0  0  0  0  0  0  0  0  0  0
    5.8183   -7.5348    3.8178 C   0  0  0  0  0  0  0  0  0  0  0  0
    2.4335   -6.0082    5.4568 C   0  0  2  0  0  0  0  0  0  0  0  0
    2.3578    0.1955    5.5767 H   0  0  0  0  0  0  0  0  0  0  0  0
    2.6932    0.2648    7.4106 H   0  0  0  0  0  0  0  0  0  0  0  0
    3.4819   -3.0845    9.5020 H   0  0  0  0  0  0  0  0  0  0  0  0
    3.2506   -1.3666    9.3142 H   0  0  0  0  0  0  0  0  0  0  0  0
    4.3088   -2.2337    8.2147 H   0  0  0  0  0  0  0  0  0  0  0  0
    0.8751   -3.4727    9.3390 H   0  0  0  0  0  0  0  0  0  0  0  0
   -0.0271   -2.5113    8.1895 H   0  0  0  0  0  0  0  0  0  0  0  0
    0.9163   -1.7206    9.4176 H   0  0  0  0  0  0  0  0  0  0  0  0
    3.3998   -3.4435    6.5857 H   0  0  0  0  0  0  0  0  0  0  0  0
   -0.2126   -3.2421    4.7031 H   0  0  0  0  0  0  0  0  0  0  0  0
   -0.3191   -2.5540    6.2639 H   0  0  0  0  0  0  0  0  0  0  0  0
   -0.5165    1.2461    4.2430 H   0  0  0  0  0  0  0  0  0  0  0  0
   -2.2823    1.1609    4.3713 H   0  0  0  0  0  0  0  0  0  0  0  0
   -1.4502    0.3845    3.0116 H   0  0  0  0  0  0  0  0  0  0  0  0
    2.1443   -1.8749    3.6265 H   0  0  0  0  0  0  0  0  0  0  0  0
    3.9080   -1.3499    4.6872 H   0  0  0  0  0  0  0  0  0  0  0  0
    1.6772   -2.7813    2.1057 H   0  0  0  0  0  0  0  0  0  0  0  0
    1.0262   -6.6546    3.9392 H   0  0  0  0  0  0  0  0  0  0  0  0
   -0.7590   -5.1277    5.3638 H   0  0  0  0  0  0  0  0  0  0  0  0
   -0.4196   -6.7958    5.6666 H   0  0  0  0  0  0  0  0  0  0  0  0
    0.1570   -4.5709    7.3429 H   0  0  0  0  0  0  0  0  0  0  0  0
    0.6087   -7.5316    7.7627 H   0  0  0  0  0  0  0  0  0  0  0  0
   -0.8096   -6.5771    8.1625 H   0  0  0  0  0  0  0  0  0  0  0  0
    0.6860   -6.3016    9.0369 H   0  0  0  0  0  0  0  0  0  0  0  0
    3.1369   -5.1381    8.7099 H   0  0  0  0  0  0  0  0  0  0  0  0
    3.2065   -7.5806    7.3570 H   0  0  0  0  0  0  0  0  0  0  0  0
    5.1356   -4.6531    7.7424 H   0  0  0  0  0  0  0  0  0  0  0  0
    5.2888   -6.3493    7.4853 H   0  0  0  0  0  0  0  0  0  0  0  0
    4.7197   -4.1620    5.4522 H   0  0  0  0  0  0  0  0  0  0  0  0
    6.5429   -6.0661    5.6029 H   0  0  0  0  0  0  0  0  0  0  0  0
    4.6865   -7.7643    5.5838 H   0  0  0  0  0  0  0  0  0  0  0  0
    3.1520   -9.2071    4.8236 H   0  0  0  0  0  0  0  0  0  0  0  0
    2.6588   -8.2274    3.5124 H   0  0  0  0  0  0  0  0  0  0  0  0
    4.9522  -10.2279    3.5933 H   0  0  0  0  0  0  0  0  0  0  0  0
    3.7113  -11.0984    1.8459 H   0  0  0  0  0  0  0  0  0  0  0  0
    7.0679   -9.3074    0.8337 H   0  0  0  0  0  0  0  0  0  0  0  0
    6.1781  -10.7814    1.2325 H   0  0  0  0  0  0  0  0  0  0  0  0
    7.0103   -9.8900    2.4945 H   0  0  0  0  0  0  0  0  0  0  0  0
    4.9428   -8.3372   -0.2739 H   0  0  0  0  0  0  0  0  0  0  0  0
    3.4137   -8.3493    0.6134 H   0  0  0  0  0  0  0  0  0  0  0  0
    4.1489   -9.8516    0.0994 H   0  0  0  0  0  0  0  0  0  0  0  0
    4.4990   -7.3958    2.2736 H   0  0  0  0  0  0  0  0  0  0  0  0
    6.6256   -5.8519    1.5019 H   0  0  0  0  0  0  0  0  0  0  0  0
    5.1512   -6.1924    0.6593 H   0  0  0  0  0  0  0  0  0  0  0  0
    5.5697   -4.4568    3.1002 H   0  0  0  0  0  0  0  0  0  0  0  0
    4.6401   -4.1629    1.6949 H   0  0  0  0  0  0  0  0  0  0  0  0
    3.3387   -6.8297    2.1894 H   0  0  0  0  0  0  0  0  0  0  0  0
    6.5857   -6.7988    3.9798 H   0  0  0  0  0  0  0  0  0  0  0  0
    6.3172   -8.4576    4.1085 H   0  0  0  0  0  0  0  0  0  0  0  0
    2.3344   -7.0446    5.7749 H   0  0  0  0  0  0  0  0  0  0  0  0
  1  2  2  0
  1 43  1  0
  1 44  1  0
  2  7  1  0
  2  3  1  0
  3  4  1  0
  3  5  1  0
  3  6  1  0
  4 45  1  0
  4 46  1  0
  4 47  1  0
  5 48  1  0
  5 49  1  0
  5 50  1  0
  6 22  1  0
  6  7  1  0
  6 51  1  6
  7  8  1  6
  7 13  1  0
  8  9  1  0
  8 52  1  0
  8 53  1  0
  9 10  1  0
 10 11  1  0
 10 12  2  0
 11 54  1  0
 11 55  1  0
 11 56  1  0
 13 14  1  0
 13 15  1  0
 13 57  1  6
 14 58  1  0
 15 39  1  0
 15 16  1  6
 15 17  1  0
 16 59  1  0
 17 18  1  0
 18 42  1  0
 18 19  1  0
 18 60  1  6
 19 20  1  0
 19 61  1  0
 19 62  1  0
 20 21  1  0
 22 20  1  1
 20 63  1  1
 21 64  1  0
 21 65  1  0
 21 66  1  0
 22 42  1  0
 22 23  1  0
 23 24  1  0
 23 25  1  0
 23 67  1  1
 24 68  1  0
 25 26  1  0
 25 69  1  0
 25 70  1  0
 26 27  1  0
 26 28  1  0
 26 71  1  1
 27 72  1  0
 28 39  1  6
 28 29  1  0
 28 42  1  0
 29 41  1  0
 29 30  1  0
 29 73  1  1
 30 31  1  0
 30 74  1  0
 30 75  1  0
 31 32  1  0
 31 33  1  0
 31 76  1  1
 32 77  1  0
 33 34  1  0
 33 35  1  0
 33 36  1  0
 34 78  1  0
 34 79  1  0
 34 80  1  0
 35 81  1  0
 35 82  1  0
 35 83  1  0
 36 37  1  0
 36 41  1  0
 36 84  1  6
 37 38  1  0
 37 85  1  0
 37 86  1  0
 38 39  1  0
 38 87  1  0
 38 88  1  0
 39 40  1  6
 40 89  1  0
 41 90  1  0
 41 91  1  0
 42 92  1  1
M  END
>  <i_m_ct_stereo_status>  (32) 
1

>  <s_m_source_file>  (32) 
/var/tmp/pbs.5076255.sched01/tmpuvpulguu/0mmv31ww_.sdf

>  <i_m_source_file_index>  (32) 
16

>  <i_lp_mmshare_version>  (32) 
48012

>  <i_f3d_flags>  (32) 
0

>  <s_epik_input>  (32) 
W0NIM11DKD1PKU9bQ0gyXVtDQF0oW0NAQEhdMVtDQF0yMzQpKEMoPVtDSDJdKUMxKFtDSDNdKVtDSDNdKVtDQEBIXShbT0hdKVtDQEBdNShbT0hdKVtDQF02KFtPSF0pW0NAQF0oW0NASF0oW09IXSlbQ0gyXVtDQEBIXTNbT0hdKShbQ0hdNFtDSF0oTzUpW0NIMl1bQ0BIXTJbQ0gzXSlbQ0hdN1tDSDJdW0NAQEhdKFtPSF0pQyhbQ0gzXSkoW0NIM10pW0NAQEhdKFtDSDJdNylbQ0gyXVtDSDJdNg==

>  <s_epik_cmdline>  (32) 
J2VwaWtfcHl0aG9uJywgJy1waHQnLCAnMi4wJywgJy1waCcsICc3LjAnLCAnLXRuJywgJzgnLCAnLW1hJywgJzIwMCcsICctaW1hZScsICc8aW5maWxlLm1hZT4nLCAnLW9tYWUnLCAnPG91dGZpbGUubWFlPic=

>  <r_lp_tautomer_probability>  (32) 
1

>  <r_epik_Ionization_Penalty>  (32) 
3.51432e-06

>  <r_epik_Ionization_Penalty_Charging>  (32) 
0

>  <r_epik_Ionization_Penalty_Neutral>  (32) 
3.51432e-06

>  <r_epik_State_Penalty>  (32) 
-0

>  <r_epik_Charging_Adjusted_Penalty>  (32) 
0

>  <i_epik_Tot_Q>  (32) 
0

>  <i_epik_Tot_abs_Q>  (32) 
0

>  <s_epik_Chemistry_Notes>  (32) 
This compound has an ester and may undergo hydrolysis at high or low pH.

>  <s_lp_Force_Field>  (32) 
OPLS3e

>  <r_lp_Energy>  (32) 
210.864

>  <b_lp_Chiralities_Consistent>  (32) 
1

>  <s_lp_Variant>  (32) 
10:0-1

>  <s_i_glide_gridfile>  (32) 
pfpi4k_grid

>  <i_i_glide_lignum>  (32) 
16

>  <i_i_glide_rotatable_bonds>  (32) 
9

>  <r_i_docking_score>  (32) 
-2.1629

>  <r_i_glide_ligand_efficiency>  (32) 
-0.0514977

>  <r_i_glide_ligand_efficiency_sa>  (32) 
-0.179007

>  <r_i_glide_ligand_efficiency_ln>  (32) 
-0.456533

>  <r_i_glide_gscore>  (32) 
-2.1629

>  <r_i_glide_lipo>  (32) 
-0.086095

>  <r_i_glide_hbond>  (32) 
-0.19922

>  <r_i_glide_metal>  (32) 
-0

>  <r_i_glide_rewards>  (32) 
-0.00130146

>  <r_i_glide_evdw>  (32) 
-21.8088

>  <r_i_glide_ecoul>  (32) 
-5.05193

>  <r_i_glide_erotb>  (32) 
0.011114

>  <r_i_glide_esite>  (32) 
-0.0391726

>  <r_i_glide_emodel>  (32) 
-30.4289

>  <r_i_glide_energy>  (32) 
-26.8607

>  <r_i_glide_einternal>  (32) 
1.82112

>  <r_i_glide_intrahb_reward>  (32) 
-0

>  <i_i_glide_confnum>  (32) 
1

>  <i_i_glide_posenum>  (32) 
2

>  <r_i_glide_eff_state_penalty>  (32) 
0

>  <ligand_id>  (32) 
10

>  <original_smiles>  (32) 
C=C1C(C)(C)C2C1(COC(C)=O)C(O)C1(O)OC3CC(C)C24C(O)CC(O)C2(C5CC(O)C(C)(C)C(CCC12O)C5)C34

>  <smiles>  (32) 
[H]OC1([H])C2(O[H])OC3([H])C([H])([H])C([H])(C([H])([H])[H])C4(C([H])(O[H])C([H])([H])C([H])(O[H])C5(C6([H])C([H])([H])C([H])(O[H])C(C([H])([H])[H])(C([H])([H])[H])C([H])(C([H])([H])C([H])([H])C25O[H])C6([H])[H])C34[H])C2([H])C(C([H])([H])[H])(C([H])([H])[H])C(=C([H])[H])C12C([H])([H])OC(=O)C([H])([H])[H]

$$$$
10:0:2
     RDKit          3D

 92 98  0  0  1  0  0  0  0  0999 V2000
    5.7984    0.0871    5.0738 C   0  0  0  0  0  0  0  0  0  0  0  0
    4.8750   -0.6461    5.6897 C   0  0  0  0  0  0  0  0  0  0  0  0
    4.7836   -1.1814    7.1241 C   0  0  0  0  0  0  0  0  0  0  0  0
    6.1473   -1.6361    7.6721 C   0  0  0  0  0  0  0  0  0  0  0  0
    4.1854   -0.2090    8.1468 C   0  0  0  0  0  0  0  0  0  0  0  0
    3.9017   -2.2560    6.4053 C   0  0  2  0  0  0  0  0  0  0  0  0
    3.6418   -1.3760    5.1494 C   0  0  1  0  0  0  0  0  0  0  0  0
    2.5066   -0.2936    5.0789 C   0  0  0  0  0  0  0  0  0  0  0  0
    2.5408    0.4721    3.8711 O   0  0  0  0  0  0  0  0  0  0  0  0
    1.6682    0.1875    2.8935 C   0  0  0  0  0  0  0  0  0  0  0  0
    1.8834    1.0756    1.6648 C   0  0  0  0  0  0  0  0  0  0  0  0
    0.7972   -0.6755    2.9587 O   0  0  0  0  0  0  0  0  0  0  0  0
    3.7503   -2.1994    3.8067 C   0  0  1  0  0  0  0  0  0  0  0  0
    5.0222   -2.7599    3.5349 O   0  0  0  0  0  0  0  0  0  0  0  0
    2.5358   -3.1974    3.5399 C   0  0  2  0  0  0  0  0  0  0  0  0
    2.1355   -2.9664    2.2164 O   0  0  0  0  0  0  0  0  0  0  0  0
    1.4942   -2.7224    4.3592 O   0  0  0  0  0  0  0  0  0  0  0  0
    1.0228   -3.4478    5.5035 C   0  0  2  0  0  0  0  0  0  0  0  0
    0.5341   -2.5308    6.6424 C   0  0  0  0  0  0  0  0  0  0  0  0
    1.6815   -2.4426    7.6740 C   0  0  1  0  0  0  0  0  0  0  0  0
    1.1794   -2.7848    9.0913 C   0  0  0  0  0  0  0  0  0  0  0  0
    2.8835   -3.2715    7.0860 C   0  0  2  0  0  0  0  0  0  0  0  0
    3.7319   -4.1819    8.0243 C   0  0  1  0  0  0  0  0  0  0  0  0
    2.9830   -5.0703    8.8431 O   0  0  0  0  0  0  0  0  0  0  0  0
    4.6970   -5.0944    7.2067 C   0  0  0  0  0  0  0  0  0  0  0  0
    4.4088   -5.2447    5.6781 C   0  0  1  0  0  0  0  0  0  0  0  0
    5.3554   -6.1990    5.2502 O   0  0  0  0  0  0  0  0  0  0  0  0
    2.8801   -5.3127    5.2312 C   0  0  2  0  0  0  0  0  0  0  0  0
    2.4232   -6.8350    5.5401 C   0  0  1  0  0  0  0  0  0  0  0  0
    0.8746   -7.1716    5.5870 C   0  0  0  0  0  0  0  0  0  0  0  0
    0.4479   -8.5426    4.8941 C   0  0  1  0  0  0  0  0  0  0  0  0
   -0.9597   -8.5785    4.8805 O   0  0  0  0  0  0  0  0  0  0  0  0
    1.0620   -8.8430    3.4378 C   0  0  0  0  0  0  0  0  0  0  0  0
    1.4247  -10.3363    3.3200 C   0  0  0  0  0  0  0  0  0  0  0  0
    0.0580   -8.4917    2.3078 C   0  0  0  0  0  0  0  0  0  0  0  0
    2.3496   -7.9845    3.3401 C   0  0  2  0  0  0  0  0  0  0  0  0
    2.9655   -7.1169    2.1988 C   0  0  0  0  0  0  0  0  0  0  0  0
    3.4209   -5.6380    2.6062 C   0  0  0  0  0  0  0  0  0  0  0  0
    2.5922   -4.8249    3.7007 C   0  0  2  0  0  0  0  0  0  0  0  0
    1.2530   -5.1325    3.2888 O   0  0  0  0  0  0  0  0  0  0  0  0
    3.0963   -7.9278    4.6522 C   0  0  0  0  0  0  0  0  0  0  0  0
    2.1120   -4.2932    6.1645 C   0  0  2  0  0  0  0  0  0  0  0  0
    5.6971    0.3031    4.0257 H   0  0  0  0  0  0  0  0  0  0  0  0
    6.6391    0.4627    5.6178 H   0  0  0  0  0  0  0  0  0  0  0  0
    6.0523   -2.1660    8.6287 H   0  0  0  0  0  0  0  0  0  0  0  0
    6.8089   -0.7904    7.8611 H   0  0  0  0  0  0  0  0  0  0  0  0
    6.6806   -2.3120    6.9948 H   0  0  0  0  0  0  0  0  0  0  0  0
    3.8580   -0.7418    9.0490 H   0  0  0  0  0  0  0  0  0  0  0  0
    3.3337    0.3445    7.7710 H   0  0  0  0  0  0  0  0  0  0  0  0
    4.9277    0.5237    8.4644 H   0  0  0  0  0  0  0  0  0  0  0  0
    4.7229   -2.8773    6.1072 H   0  0  0  0  0  0  0  0  0  0  0  0
    1.5122   -0.7098    5.2238 H   0  0  0  0  0  0  0  0  0  0  0  0
    2.6187    0.4128    5.8915 H   0  0  0  0  0  0  0  0  0  0  0  0
    1.6546    2.1431    1.8393 H   0  0  0  0  0  0  0  0  0  0  0  0
    1.2380    0.7068    0.8718 H   0  0  0  0  0  0  0  0  0  0  0  0
    2.9213    0.9734    1.3247 H   0  0  0  0  0  0  0  0  0  0  0  0
    3.7069   -1.4564    3.0094 H   0  0  0  0  0  0  0  0  0  0  0  0
    4.9926   -3.0671    2.6481 H   0  0  0  0  0  0  0  0  0  0  0  0
    1.9752   -2.0066    2.1051 H   0  0  0  0  0  0  0  0  0  0  0  0
    0.1779   -4.0864    5.2295 H   0  0  0  0  0  0  0  0  0  0  0  0
    0.2173   -1.5535    6.2735 H   0  0  0  0  0  0  0  0  0  0  0  0
   -0.3329   -2.9883    7.1366 H   0  0  0  0  0  0  0  0  0  0  0  0
    1.9670   -1.4029    7.7253 H   0  0  0  0  0  0  0  0  0  0  0  0
    0.7469   -3.7864    9.1322 H   0  0  0  0  0  0  0  0  0  0  0  0
    0.3992   -2.0861    9.3980 H   0  0  0  0  0  0  0  0  0  0  0  0
    1.9740   -2.7233    9.8390 H   0  0  0  0  0  0  0  0  0  0  0  0
    4.3105   -3.5656    8.7169 H   0  0  0  0  0  0  0  0  0  0  0  0
    3.5709   -5.4982    9.4359 H   0  0  0  0  0  0  0  0  0  0  0  0
    5.7090   -4.7007    7.3084 H   0  0  0  0  0  0  0  0  0  0  0  0
    4.7374   -6.0823    7.6628 H   0  0  0  0  0  0  0  0  0  0  0  0
    4.8431   -4.4561    5.1115 H   0  0  0  0  0  0  0  0  0  0  0  0
    5.1251   -7.0275    5.6219 H   0  0  0  0  0  0  0  0  0  0  0  0
    2.7772   -7.0450    6.5507 H   0  0  0  0  0  0  0  0  0  0  0  0
    0.5465   -7.1958    6.6251 H   0  0  0  0  0  0  0  0  0  0  0  0
    0.2831   -6.3715    5.1478 H   0  0  0  0  0  0  0  0  0  0  0  0
    0.7994   -9.3338    5.5696 H   0  0  0  0  0  0  0  0  0  0  0  0
   -1.2404   -9.5098    4.8707 H   0  0  0  0  0  0  0  0  0  0  0  0
    1.9026  -10.5471    2.3641 H   0  0  0  0  0  0  0  0  0  0  0  0
    0.5369  -10.9602    3.4061 H   0  0  0  0  0  0  0  0  0  0  0  0
    2.1140  -10.6456    4.1062 H   0  0  0  0  0  0  0  0  0  0  0  0
    0.5468   -8.6066    1.3447 H   0  0  0  0  0  0  0  0  0  0  0  0
   -0.3052   -7.4656    2.3781 H   0  0  0  0  0  0  0  0  0  0  0  0
   -0.8091   -9.1504    2.3277 H   0  0  0  0  0  0  0  0  0  0  0  0
    1.6507   -7.2168    3.4014 H   0  0  0  0  0  0  0  0  0  0  0  0
    3.8253   -7.6349    1.7785 H   0  0  0  0  0  0  0  0  0  0  0  0
    2.2499   -7.0358    1.3798 H   0  0  0  0  0  0  0  0  0  0  0  0
    4.4597   -5.6570    2.9147 H   0  0  0  0  0  0  0  0  0  0  0  0
    3.4374   -5.0766    1.6814 H   0  0  0  0  0  0  0  0  0  0  0  0
    1.1116   -6.0422    3.3526 H   0  0  0  0  0  0  0  0  0  0  0  0
    4.1432   -7.8649    4.4055 H   0  0  0  0  0  0  0  0  0  0  0  0
    3.0300   -8.8817    5.1725 H   0  0  0  0  0  0  0  0  0  0  0  0
    1.5615   -4.9329    6.8631 H   0  0  0  0  0  0  0  0  0  0  0  0
  1  2  2  0
  1 43  1  0
  1 44  1  0
  2  7  1  0
  2  3  1  0
  3  4  1  0
  3  5  1  0
  3  6  1  0
  4 45  1  0
  4 46  1  0
  4 47  1  0
  5 48  1  0
  5 49  1  0
  5 50  1  0
  6 22  1  0
  6  7  1  0
  6 51  1  6
  7  8  1  1
  7 13  1  0
  8  9  1  0
  8 52  1  0
  8 53  1  0
  9 10  1  0
 10 11  1  0
 10 12  2  0
 11 54  1  0
 11 55  1  0
 11 56  1  0
 13 14  1  0
 13 15  1  0
 13 57  1  6
 14 58  1  0
 15 39  1  0
 15 16  1  6
 15 17  1  0
 16 59  1  0
 17 18  1  0
 18 42  1  0
 18 19  1  0
 18 60  1  6
 19 20  1  0
 19 61  1  0
 19 62  1  0
 20 21  1  0
 22 20  1  1
 20 63  1  1
 21 64  1  0
 21 65  1  0
 21 66  1  0
 22 42  1  0
 22 23  1  0
 23 24  1  0
 23 25  1  0
 23 67  1  1
 24 68  1  0
 25 26  1  0
 25 69  1  0
 25 70  1  0
 26 27  1  0
 26 28  1  0
 26 71  1  6
 27 72  1  0
 28 39  1  6
 28 29  1  0
 28 42  1  0
 29 41  1  0
 29 30  1  0
 29 73  1  1
 30 31  1  0
 30 74  1  0
 30 75  1  0
 31 32  1  0
 31 33  1  0
 31 76  1  1
 32 77  1  0
 33 34  1  0
 33 35  1  0
 33 36  1  0
 34 78  1  0
 34 79  1  0
 34 80  1  0
 35 81  1  0
 35 82  1  0
 35 83  1  0
 36 37  1  0
 36 41  1  0
 36 84  1  6
 37 38  1  0
 37 85  1  0
 37 86  1  0
 38 39  1  0
 38 87  1  0
 38 88  1  0
 39 40  1  6
 40 89  1  0
 41 90  1  0
 41 91  1  0
 42 92  1  1
M  END
>  <i_m_ct_stereo_status>  (33) 
1

>  <s_m_source_file>  (33) 
/var/tmp/pbs.5076255.sched01/tmpuvpulguu/0mmv31ww_.sdf

>  <i_m_source_file_index>  (33) 
16

>  <i_lp_mmshare_version>  (33) 
48012

>  <i_f3d_flags>  (33) 
0

>  <s_epik_input>  (33) 
W0NIM11DKD1PKU9bQ0gyXVtDQF0oW0NAQEhdMVtDQF0yMzQpKEMoPVtDSDJdKUMxKFtDSDNdKVtDSDNdKVtDQEBIXShbT0hdKVtDQEBdNShbT0hdKVtDQF02KFtPSF0pW0NAQF0oW0NASF0oW09IXSlbQ0gyXVtDQEBIXTNbT0hdKShbQ0hdNFtDSF0oTzUpW0NIMl1bQ0BIXTJbQ0gzXSlbQ0hdN1tDSDJdW0NAQEhdKFtPSF0pQyhbQ0gzXSkoW0NIM10pW0NAQEhdKFtDSDJdNylbQ0gyXVtDSDJdNg==

>  <s_epik_cmdline>  (33) 
J2VwaWtfcHl0aG9uJywgJy1waHQnLCAnMi4wJywgJy1waCcsICc3LjAnLCAnLXRuJywgJzgnLCAnLW1hJywgJzIwMCcsICctaW1hZScsICc8aW5maWxlLm1hZT4nLCAnLW9tYWUnLCAnPG91dGZpbGUubWFlPic=

>  <r_lp_tautomer_probability>  (33) 
1

>  <r_epik_Ionization_Penalty>  (33) 
3.51432e-06

>  <r_epik_Ionization_Penalty_Charging>  (33) 
0

>  <r_epik_Ionization_Penalty_Neutral>  (33) 
3.51432e-06

>  <r_epik_State_Penalty>  (33) 
-0

>  <r_epik_Charging_Adjusted_Penalty>  (33) 
0

>  <i_epik_Tot_Q>  (33) 
0

>  <i_epik_Tot_abs_Q>  (33) 
0

>  <s_epik_Chemistry_Notes>  (33) 
This compound has an ester and may undergo hydrolysis at high or low pH.

>  <s_lp_Force_Field>  (33) 
OPLS3e

>  <r_lp_Energy>  (33) 
210.864

>  <b_lp_Chiralities_Consistent>  (33) 
1

>  <s_lp_Variant>  (33) 
10:0-1

>  <s_i_glide_gridfile>  (33) 
pfpi4k_grid

>  <i_i_glide_lignum>  (33) 
16

>  <i_i_glide_rotatable_bonds>  (33) 
9

>  <r_i_docking_score>  (33) 
-2.10876

>  <r_i_glide_ligand_efficiency>  (33) 
-0.0502085

>  <r_i_glide_ligand_efficiency_sa>  (33) 
-0.174526

>  <r_i_glide_ligand_efficiency_ln>  (33) 
-0.445105

>  <r_i_glide_gscore>  (33) 
-2.10876

>  <r_i_glide_lipo>  (33) 
-0.219394

>  <r_i_glide_hbond>  (33) 
-0.16

>  <r_i_glide_metal>  (33) 
-0

>  <r_i_glide_rewards>  (33) 
-0.502338

>  <r_i_glide_evdw>  (33) 
-20.2241

>  <r_i_glide_ecoul>  (33) 
-1.39362

>  <r_i_glide_erotb>  (33) 
0.011114

>  <r_i_glide_esite>  (33) 
-0.0178935

>  <r_i_glide_emodel>  (33) 
-28.4617

>  <r_i_glide_energy>  (33) 
-21.6177

>  <r_i_glide_einternal>  (33) 
1.93976

>  <r_i_glide_intrahb_reward>  (33) 
-0.5

>  <i_i_glide_confnum>  (33) 
1

>  <i_i_glide_posenum>  (33) 
36

>  <r_i_glide_eff_state_penalty>  (33) 
0

>  <ligand_id>  (33) 
10

>  <original_smiles>  (33) 
C=C1C(C)(C)C2C1(COC(C)=O)C(O)C1(O)OC3CC(C)C24C(O)CC(O)C2(C5CC(O)C(C)(C)C(CCC12O)C5)C34

>  <smiles>  (33) 
[H]OC1([H])C2(O[H])OC3([H])C([H])([H])C([H])(C([H])([H])[H])C4(C([H])(O[H])C([H])([H])C([H])(O[H])C5(C6([H])C([H])([H])C([H])(O[H])C(C([H])([H])[H])(C([H])([H])[H])C([H])(C([H])([H])C([H])([H])C25O[H])C6([H])[H])C34[H])C2([H])C(C([H])([H])[H])(C([H])([H])[H])C(=C([H])[H])C12C([H])([H])OC(=O)C([H])([H])[H]

$$$$
10:6:0
     RDKit          3D

 92 98  0  0  1  0  0  0  0  0999 V2000
    6.1847   -3.4118   -2.1609 C   0  0  0  0  0  0  0  0  0  0  0  0
    5.6829   -3.0594   -0.9737 C   0  0  0  0  0  0  0  0  0  0  0  0
    6.3246   -2.5221    0.2793 C   0  0  0  0  0  0  0  0  0  0  0  0
    7.6890   -3.1846    0.5092 C   0  0  0  0  0  0  0  0  0  0  0  0
    6.4539   -1.0006    0.3112 C   0  0  0  0  0  0  0  0  0  0  0  0
    5.0942   -3.1828    0.9587 C   0  0  2  0  0  0  0  0  0  0  0  0
    4.3183   -3.2570   -0.3735 C   0  0  1  0  0  0  0  0  0  0  0  0
    3.3966   -2.0949   -0.9019 C   0  0  0  0  0  0  0  0  0  0  0  0
    3.8507   -1.5125   -2.1271 O   0  0  0  0  0  0  0  0  0  0  0  0
    3.4442   -1.9109   -3.3222 C   0  0  0  0  0  0  0  0  0  0  0  0
    2.2923   -2.8783   -3.3459 C   0  0  0  0  0  0  0  0  0  0  0  0
    4.0007   -1.5145   -4.3851 O   0  0  0  0  0  0  0  0  0  0  0  0
    3.6728   -4.6791   -0.4939 C   0  0  1  0  0  0  0  0  0  0  0  0
    4.5961   -5.7350   -0.4809 O   0  0  0  0  0  0  0  0  0  0  0  0
    2.4864   -4.9292    0.5195 C   0  0  2  0  0  0  0  0  0  0  0  0
    1.4385   -5.3863   -0.3053 O   0  0  0  0  0  0  0  0  0  0  0  0
    2.2146   -3.6198    0.8905 O   0  0  0  0  0  0  0  0  0  0  0  0
    2.1175   -3.1591    2.2288 C   0  0  2  0  0  0  0  0  0  0  0  0
    2.3313   -1.6334    2.2531 C   0  0  0  0  0  0  0  0  0  0  0  0
    3.8549   -1.4133    2.3812 C   0  0  1  0  0  0  0  0  0  0  0  0
    4.2030   -0.4291    3.5148 C   0  0  0  0  0  0  0  0  0  0  0  0
    4.4773   -2.8536    2.3935 C   0  0  2  0  0  0  0  0  0  0  0  0
    5.5951   -3.1519    3.3856 C   0  0  1  0  0  0  0  0  0  0  0  0
    5.3802   -2.7852    4.7449 O   0  0  0  0  0  0  0  0  0  0  0  0
    5.9725   -4.6676    3.3882 C   0  0  0  0  0  0  0  0  0  0  0  0
    4.9059   -5.6785    2.8730 C   0  0  1  0  0  0  0  0  0  0  0  0
    5.4283   -6.9380    3.2190 O   0  0  0  0  0  0  0  0  0  0  0  0
    3.3692   -5.2969    3.0648 C   0  0  2  0  0  0  0  0  0  0  0  0
    2.8026   -5.7145    4.5432 C   0  0  2  0  0  0  0  0  0  0  0  0
    3.7996   -6.1848    5.6730 C   0  0  0  0  0  0  0  0  0  0  0  0
    4.0975   -7.7418    5.8654 C   0  0  1  0  0  0  0  0  0  0  0  0
    4.2324   -7.9815    7.2469 O   0  0  0  0  0  0  0  0  0  0  0  0
    3.1441   -8.8284    5.1783 C   0  0  0  0  0  0  0  0  0  0  0  0
    4.0032   -9.9762    4.6067 C   0  0  0  0  0  0  0  0  0  0  0  0
    2.1105   -9.4460    6.1552 C   0  0  0  0  0  0  0  0  0  0  0  0
    2.4343   -8.0508    4.0576 C   0  0  1  0  0  0  0  0  0  0  0  0
    2.0404   -8.4540    2.6285 C   0  0  0  0  0  0  0  0  0  0  0  0
    2.5390   -7.4063    1.5496 C   0  0  0  0  0  0  0  0  0  0  0  0
    2.4522   -5.8590    1.8394 C   0  0  2  0  0  0  0  0  0  0  0  0
    1.0619   -5.8111    2.1961 O   0  0  0  0  0  0  0  0  0  0  0  0
    1.7446   -6.8201    4.6212 C   0  0  0  0  0  0  0  0  0  0  0  0
    3.2972   -3.7144    2.9684 C   0  0  2  0  0  0  0  0  0  0  0  0
    5.5477   -3.8823   -2.8907 H   0  0  0  0  0  0  0  0  0  0  0  0
    7.2210   -3.2380   -2.3787 H   0  0  0  0  0  0  0  0  0  0  0  0
    7.9821   -3.0652    1.5582 H   0  0  0  0  0  0  0  0  0  0  0  0
    8.4393   -2.7603   -0.1724 H   0  0  0  0  0  0  0  0  0  0  0  0
    7.6498   -4.2670    0.3244 H   0  0  0  0  0  0  0  0  0  0  0  0
    6.5646   -0.6495    1.3419 H   0  0  0  0  0  0  0  0  0  0  0  0
    5.5956   -0.4915   -0.1373 H   0  0  0  0  0  0  0  0  0  0  0  0
    7.3454   -0.6778   -0.2224 H   0  0  0  0  0  0  0  0  0  0  0  0
    5.5398   -4.1369    1.1008 H   0  0  0  0  0  0  0  0  0  0  0  0
    2.3710   -2.4360   -1.0399 H   0  0  0  0  0  0  0  0  0  0  0  0
    3.4033   -1.2364   -0.2193 H   0  0  0  0  0  0  0  0  0  0  0  0
    2.4785   -3.7824   -2.7592 H   0  0  0  0  0  0  0  0  0  0  0  0
    2.0137   -3.1289   -4.3613 H   0  0  0  0  0  0  0  0  0  0  0  0
    1.4113   -2.3513   -2.9721 H   0  0  0  0  0  0  0  0  0  0  0  0
    3.2702   -4.6533   -1.4811 H   0  0  0  0  0  0  0  0  0  0  0  0
    4.3123   -6.3001   -1.1862 H   0  0  0  0  0  0  0  0  0  0  0  0
    1.6677   -5.2550   -1.1939 H   0  0  0  0  0  0  0  0  0  0  0  0
    1.1670   -3.4066    2.6952 H   0  0  0  0  0  0  0  0  0  0  0  0
    1.9085   -1.1578    1.3655 H   0  0  0  0  0  0  0  0  0  0  0  0
    1.8178   -1.1821    3.1042 H   0  0  0  0  0  0  0  0  0  0  0  0
    4.2010   -0.8801    1.5092 H   0  0  0  0  0  0  0  0  0  0  0  0
    3.8194   -0.7604    4.4826 H   0  0  0  0  0  0  0  0  0  0  0  0
    3.7661    0.5489    3.2968 H   0  0  0  0  0  0  0  0  0  0  0  0
    5.2835   -0.2872    3.5850 H   0  0  0  0  0  0  0  0  0  0  0  0
    6.3649   -2.5176    2.9622 H   0  0  0  0  0  0  0  0  0  0  0  0
    4.6564   -3.3072    5.0800 H   0  0  0  0  0  0  0  0  0  0  0  0
    6.8421   -4.8233    2.7518 H   0  0  0  0  0  0  0  0  0  0  0  0
    6.3218   -4.9644    4.3717 H   0  0  0  0  0  0  0  0  0  0  0  0
    5.0393   -5.8223    1.8180 H   0  0  0  0  0  0  0  0  0  0  0  0
    5.0375   -7.5942    2.6533 H   0  0  0  0  0  0  0  0  0  0  0  0
    2.2711   -4.8476    4.9335 H   0  0  0  0  0  0  0  0  0  0  0  0
    4.7291   -5.6287    5.6322 H   0  0  0  0  0  0  0  0  0  0  0  0
    3.3422   -5.8297    6.5968 H   0  0  0  0  0  0  0  0  0  0  0  0
    5.0999   -7.8956    5.4685 H   0  0  0  0  0  0  0  0  0  0  0  0
    4.4303   -8.9036    7.3539 H   0  0  0  0  0  0  0  0  0  0  0  0
    3.3749  -10.7386    4.1422 H   0  0  0  0  0  0  0  0  0  0  0  0
    4.5749  -10.4593    5.4011 H   0  0  0  0  0  0  0  0  0  0  0  0
    4.7131   -9.6198    3.8572 H   0  0  0  0  0  0  0  0  0  0  0  0
    1.3310   -9.9804    5.6109 H   0  0  0  0  0  0  0  0  0  0  0  0
    1.6259   -8.7098    6.7948 H   0  0  0  0  0  0  0  0  0  0  0  0
    2.5831  -10.1659    6.8241 H   0  0  0  0  0  0  0  0  0  0  0  0
    3.3688   -7.7392    3.6572 H   0  0  0  0  0  0  0  0  0  0  0  0
    2.4626   -9.4236    2.3631 H   0  0  0  0  0  0  0  0  0  0  0  0
    0.9575   -8.5727    2.5563 H   0  0  0  0  0  0  0  0  0  0  0  0
    3.5608   -7.6307    1.2523 H   0  0  0  0  0  0  0  0  0  0  0  0
    1.9025   -7.6174    0.6975 H   0  0  0  0  0  0  0  0  0  0  0  0
    0.9379   -6.3033    2.9861 H   0  0  0  0  0  0  0  0  0  0  0  0
    1.5010   -6.9416    5.6710 H   0  0  0  0  0  0  0  0  0  0  0  0
    0.7404   -6.6362    4.2560 H   0  0  0  0  0  0  0  0  0  0  0  0
    3.1477   -3.3351    3.9824 H   0  0  0  0  0  0  0  0  0  0  0  0
  1  2  2  0
  1 43  1  0
  1 44  1  0
  2  7  1  0
  2  3  1  0
  3  4  1  0
  3  5  1  0
  3  6  1  0
  4 45  1  0
  4 46  1  0
  4 47  1  0
  5 48  1  0
  5 49  1  0
  5 50  1  0
  6 22  1  0
  6  7  1  0
  6 51  1  1
  7  8  1  1
  7 13  1  0
  8  9  1  0
  8 52  1  0
  8 53  1  0
  9 10  1  0
 10 11  1  0
 10 12  2  0
 11 54  1  0
 11 55  1  0
 11 56  1  0
 13 14  1  0
 13 15  1  0
 13 57  1  6
 14 58  1  0
 15 39  1  0
 15 16  1  6
 15 17  1  0
 16 59  1  0
 17 18  1  0
 18 42  1  0
 18 19  1  0
 18 60  1  1
 19 20  1  0
 19 61  1  0
 19 62  1  0
 20 21  1  0
 22 20  1  6
 20 63  1  6
 21 64  1  0
 21 65  1  0
 21 66  1  0
 22 42  1  0
 22 23  1  0
 23 24  1  0
 23 25  1  0
 23 67  1  6
 24 68  1  0
 25 26  1  0
 25 69  1  0
 25 70  1  0
 26 27  1  0
 26 28  1  0
 26 71  1  6
 27 72  1  0
 28 39  1  6
 28 29  1  0
 28 42  1  0
 29 41  1  0
 29 30  1  0
 29 73  1  1
 30 31  1  0
 30 74  1  0
 30 75  1  0
 31 32  1  0
 31 33  1  0
 31 76  1  6
 32 77  1  0
 33 34  1  0
 33 35  1  0
 33 36  1  0
 34 78  1  0
 34 79  1  0
 34 80  1  0
 35 81  1  0
 35 82  1  0
 35 83  1  0
 36 37  1  0
 36 41  1  0
 36 84  1  6
 37 38  1  0
 37 85  1  0
 37 86  1  0
 38 39  1  0
 38 87  1  0
 38 88  1  0
 39 40  1  1
 40 89  1  0
 41 90  1  0
 41 91  1  0
 42 92  1  1
M  END
>  <i_m_ct_stereo_status>  (34) 
1

>  <s_m_source_file>  (34) 
/var/tmp/pbs.5076255.sched01/tmpuvpulguu/0mmv31ww_.sdf

>  <i_m_source_file_index>  (34) 
22

>  <i_lp_mmshare_version>  (34) 
48012

>  <i_f3d_flags>  (34) 
0

>  <s_epik_input>  (34) 
W0NIM11DKD1PKU9bQ0gyXVtDQF0oW0NAQEhdMVtDQF0yMzQpKEMoPVtDSDJdKUMxKFtDSDNdKVtDSDNdKVtDQEBIXShbT0hdKVtDQEBdNShbT0hdKVtDQF02KFtPSF0pW0NAQF0oW0NASF0oW09IXSlbQ0gyXVtDQEBIXTNbT0hdKShbQ0hdNFtDSF0oTzUpW0NIMl1bQ0BIXTJbQ0gzXSlbQ0hdN1tDSDJdW0NAQEhdKFtPSF0pQyhbQ0gzXSkoW0NIM10pW0NAQEhdKFtDSDJdNylbQ0gyXVtDSDJdNg==

>  <s_epik_cmdline>  (34) 
J2VwaWtfcHl0aG9uJywgJy1waHQnLCAnMi4wJywgJy1waCcsICc3LjAnLCAnLXRuJywgJzgnLCAnLW1hJywgJzIwMCcsICctaW1hZScsICc8aW5maWxlLm1hZT4nLCAnLW9tYWUnLCAnPG91dGZpbGUubWFlPic=

>  <r_lp_tautomer_probability>  (34) 
1

>  <r_epik_Ionization_Penalty>  (34) 
3.51432e-06

>  <r_epik_Ionization_Penalty_Charging>  (34) 
0

>  <r_epik_Ionization_Penalty_Neutral>  (34) 
3.51432e-06

>  <r_epik_State_Penalty>  (34) 
-0

>  <r_epik_Charging_Adjusted_Penalty>  (34) 
0

>  <i_epik_Tot_Q>  (34) 
0

>  <i_epik_Tot_abs_Q>  (34) 
0

>  <s_epik_Chemistry_Notes>  (34) 
This compound has an ester and may undergo hydrolysis at high or low pH.

>  <s_lp_Force_Field>  (34) 
OPLS3e

>  <r_lp_Energy>  (34) 
207.681

>  <b_lp_Chiralities_Consistent>  (34) 
1

>  <s_lp_Variant>  (34) 
10:0-7

>  <s_i_glide_gridfile>  (34) 
pfpi4k_grid

>  <i_i_glide_lignum>  (34) 
22

>  <i_i_glide_rotatable_bonds>  (34) 
9

>  <r_i_docking_score>  (34) 
-4.19165

>  <r_i_glide_ligand_efficiency>  (34) 
-0.0998011

>  <r_i_glide_ligand_efficiency_sa>  (34) 
-0.346911

>  <r_i_glide_ligand_efficiency_ln>  (34) 
-0.884749

>  <r_i_glide_gscore>  (34) 
-4.19165

>  <r_i_glide_lipo>  (34) 
-0.868396

>  <r_i_glide_hbond>  (34) 
-0.292555

>  <r_i_glide_metal>  (34) 
-0

>  <r_i_glide_rewards>  (34) 
-0.181261

>  <r_i_glide_evdw>  (34) 
-13.9341

>  <r_i_glide_ecoul>  (34) 
-14.4532

>  <r_i_glide_erotb>  (34) 
0.011114

>  <r_i_glide_esite>  (34) 
-0.0446556

>  <r_i_glide_emodel>  (34) 
-23.1474

>  <r_i_glide_energy>  (34) 
-28.3873

>  <r_i_glide_einternal>  (34) 
12.9568

>  <r_i_glide_intrahb_reward>  (34) 
-0

>  <i_i_glide_confnum>  (34) 
3

>  <i_i_glide_posenum>  (34) 
3

>  <r_i_glide_eff_state_penalty>  (34) 
0

>  <ligand_id>  (34) 
10

>  <original_smiles>  (34) 
C=C1C(C)(C)C2C1(COC(C)=O)C(O)C1(O)OC3CC(C)C24C(O)CC(O)C2(C5CC(O)C(C)(C)C(CCC12O)C5)C34

>  <smiles>  (34) 
[H]OC1([H])C2(O[H])OC3([H])C([H])([H])C([H])(C([H])([H])[H])C4(C([H])(O[H])C([H])([H])C([H])(O[H])C5(C6([H])C([H])([H])C([H])(O[H])C(C([H])([H])[H])(C([H])([H])[H])C([H])(C([H])([H])C([H])([H])C25O[H])C6([H])[H])C34[H])C2([H])C(C([H])([H])[H])(C([H])([H])[H])C(=C([H])[H])C12C([H])([H])OC(=O)C([H])([H])[H]

$$$$
10:6:1
     RDKit          3D

 92 98  0  0  1  0  0  0  0  0999 V2000
    8.2205   -7.0804    0.5693 C   0  0  0  0  0  0  0  0  0  0  0  0
    7.5716   -6.7231    1.6602 C   0  0  0  0  0  0  0  0  0  0  0  0
    7.6962   -7.1580    3.1235 C   0  0  0  0  0  0  0  0  0  0  0  0
    7.8806   -8.6684    3.2179 C   0  0  0  0  0  0  0  0  0  0  0  0
    8.8549   -6.4980    3.8866 C   0  0  0  0  0  0  0  0  0  0  0  0
    6.2464   -6.5811    3.1795 C   0  0  2  0  0  0  0  0  0  0  0  0
    6.4021   -5.7508    1.8739 C   0  0  1  0  0  0  0  0  0  0  0  0
    7.0411   -4.3301    1.8270 C   0  0  0  0  0  0  0  0  0  0  0  0
    7.0950   -3.6854    0.5524 O   0  0  0  0  0  0  0  0  0  0  0  0
    6.6464   -2.4204    0.3147 C   0  0  0  0  0  0  0  0  0  0  0  0
    5.9203   -1.7113    1.4810 C   0  0  0  0  0  0  0  0  0  0  0  0
    6.7363   -1.8713   -0.7886 O   0  0  0  0  0  0  0  0  0  0  0  0
    5.1252   -5.8351    0.9512 C   0  0  1  0  0  0  0  0  0  0  0  0
    4.8487   -7.1496    0.4905 O   0  0  0  0  0  0  0  0  0  0  0  0
    3.8566   -5.0978    1.5726 C   0  0  2  0  0  0  0  0  0  0  0  0
    3.3269   -4.3621    0.4880 O   0  0  0  0  0  0  0  0  0  0  0  0
    4.3736   -4.1721    2.5047 O   0  0  0  0  0  0  0  0  0  0  0  0
    4.0793   -4.2463    3.9086 C   0  0  2  0  0  0  0  0  0  0  0  0
    5.2277   -3.6919    4.7523 C   0  0  0  0  0  0  0  0  0  0  0  0
    6.1109   -4.9107    5.1314 C   0  0  1  0  0  0  0  0  0  0  0  0
    6.4817   -4.8860    6.6250 C   0  0  0  0  0  0  0  0  0  0  0  0
    5.4604   -6.1833    4.5004 C   0  0  2  0  0  0  0  0  0  0  0  0
    5.3867   -7.4758    5.3565 C   0  0  1  0  0  0  0  0  0  0  0  0
    4.8126   -7.3015    6.6425 O   0  0  0  0  0  0  0  0  0  0  0  0
    4.5177   -8.5432    4.6410 C   0  0  0  0  0  0  0  0  0  0  0  0
    3.5104   -8.0403    3.5524 C   0  0  1  0  0  0  0  0  0  0  0  0
    2.7346   -9.1769    3.2673 O   0  0  0  0  0  0  0  0  0  0  0  0
    2.8776   -6.5745    3.6945 C   0  0  2  0  0  0  0  0  0  0  0  0
    1.5736   -6.5786    4.6901 C   0  0  2  0  0  0  0  0  0  0  0  0
    1.2231   -7.8406    5.5568 C   0  0  0  0  0  0  0  0  0  0  0  0
    0.2302   -8.9186    4.9519 C   0  0  1  0  0  0  0  0  0  0  0  0
   -0.5217   -9.3573    6.0572 O   0  0  0  0  0  0  0  0  0  0  0  0
   -0.7006   -8.5544    3.6957 C   0  0  0  0  0  0  0  0  0  0  0  0
   -0.7752   -9.7406    2.7103 C   0  0  0  0  0  0  0  0  0  0  0  0
   -2.1415   -8.1729    4.0717 C   0  0  0  0  0  0  0  0  0  0  0  0
   -0.0042   -7.3508    3.0491 C   0  0  1  0  0  0  0  0  0  0  0  0
    0.1771   -6.9827    1.5725 C   0  0  0  0  0  0  0  0  0  0  0  0
    1.7000   -6.6938    1.2236 C   0  0  0  0  0  0  0  0  0  0  0  0
    2.5867   -5.8576    2.2454 C   0  0  2  0  0  0  0  0  0  0  0  0
    1.7270   -4.7484    2.4316 O   0  0  0  0  0  0  0  0  0  0  0  0
    0.2052   -6.2587    4.0858 C   0  0  0  0  0  0  0  0  0  0  0  0
    3.9821   -5.6923    4.3814 C   0  0  2  0  0  0  0  0  0  0  0  0
    7.9491   -6.5816   -0.3246 H   0  0  0  0  0  0  0  0  0  0  0  0
    9.0122   -7.8097    0.6075 H   0  0  0  0  0  0  0  0  0  0  0  0
    7.7942   -9.0375    4.2390 H   0  0  0  0  0  0  0  0  0  0  0  0
    8.8819   -8.9466    2.8908 H   0  0  0  0  0  0  0  0  0  0  0  0
    7.1582   -9.2084    2.5995 H   0  0  0  0  0  0  0  0  0  0  0  0
    8.7248   -6.5986    4.9709 H   0  0  0  0  0  0  0  0  0  0  0  0
    8.9620   -5.4438    3.6621 H   0  0  0  0  0  0  0  0  0  0  0  0
    9.8081   -6.9716    3.6255 H   0  0  0  0  0  0  0  0  0  0  0  0
    5.7582   -7.4588    2.8318 H   0  0  0  0  0  0  0  0  0  0  0  0
    6.5267   -3.6601    2.5034 H   0  0  0  0  0  0  0  0  0  0  0  0
    8.0999   -4.4721    2.0596 H   0  0  0  0  0  0  0  0  0  0  0  0
    5.0490   -2.2734    1.8211 H   0  0  0  0  0  0  0  0  0  0  0  0
    5.5799   -0.7257    1.1651 H   0  0  0  0  0  0  0  0  0  0  0  0
    6.5966   -1.4943    2.3257 H   0  0  0  0  0  0  0  0  0  0  0  0
    5.3572   -5.3101    0.0240 H   0  0  0  0  0  0  0  0  0  0  0  0
    4.6085   -7.6797    1.2375 H   0  0  0  0  0  0  0  0  0  0  0  0
    3.3767   -4.8928   -0.2915 H   0  0  0  0  0  0  0  0  0  0  0  0
    3.1678   -3.7066    4.1740 H   0  0  0  0  0  0  0  0  0  0  0  0
    5.7369   -2.8934    4.2126 H   0  0  0  0  0  0  0  0  0  0  0  0
    4.8464   -3.2335    5.6676 H   0  0  0  0  0  0  0  0  0  0  0  0
    7.0619   -4.8269    4.6528 H   0  0  0  0  0  0  0  0  0  0  0  0
    5.5948   -4.8965    7.2639 H   0  0  0  0  0  0  0  0  0  0  0  0
    7.0449   -3.9740    6.8517 H   0  0  0  0  0  0  0  0  0  0  0  0
    7.1256   -5.7288    6.8871 H   0  0  0  0  0  0  0  0  0  0  0  0
    6.3943   -7.8675    5.5224 H   0  0  0  0  0  0  0  0  0  0  0  0
    4.8636   -8.1276    7.1000 H   0  0  0  0  0  0  0  0  0  0  0  0
    5.1821   -9.2400    4.1280 H   0  0  0  0  0  0  0  0  0  0  0  0
    4.0175   -9.1565    5.3908 H   0  0  0  0  0  0  0  0  0  0  0  0
    3.9855   -8.0168    2.5920 H   0  0  0  0  0  0  0  0  0  0  0  0
    2.2620   -9.3951    4.0574 H   0  0  0  0  0  0  0  0  0  0  0  0
    1.7083   -5.7606    5.3927 H   0  0  0  0  0  0  0  0  0  0  0  0
    2.1128   -8.3314    5.9306 H   0  0  0  0  0  0  0  0  0  0  0  0
    0.7632   -7.4305    6.4654 H   0  0  0  0  0  0  0  0  0  0  0  0
    0.8135   -9.7949    4.6655 H   0  0  0  0  0  0  0  0  0  0  0  0
   -1.0999  -10.0168    5.7183 H   0  0  0  0  0  0  0  0  0  0  0  0
   -1.4450   -9.4987    1.8806 H   0  0  0  0  0  0  0  0  0  0  0  0
   -1.1440  -10.6094    3.2039 H   0  0  0  0  0  0  0  0  0  0  0  0
    0.2130  -10.0048    2.3327 H   0  0  0  0  0  0  0  0  0  0  0  0
   -2.6943   -7.7143    3.2358 H   0  0  0  0  0  0  0  0  0  0  0  0
   -2.1754   -7.4850    4.9030 H   0  0  0  0  0  0  0  0  0  0  0  0
   -2.6507   -9.0575    4.4142 H   0  0  0  0  0  0  0  0  0  0  0  0
    0.8986   -7.9046    2.9791 H   0  0  0  0  0  0  0  0  0  0  0  0
   -0.1659   -7.8053    0.9395 H   0  0  0  0  0  0  0  0  0  0  0  0
   -0.4689   -6.1416    1.3265 H   0  0  0  0  0  0  0  0  0  0  0  0
    2.1892   -7.6485    1.0518 H   0  0  0  0  0  0  0  0  0  0  0  0
    1.6847   -6.2104    0.2496 H   0  0  0  0  0  0  0  0  0  0  0  0
    2.2513   -4.0548    2.8006 H   0  0  0  0  0  0  0  0  0  0  0  0
   -0.5082   -6.2774    4.9074 H   0  0  0  0  0  0  0  0  0  0  0  0
   -0.0069   -5.2582    3.7495 H   0  0  0  0  0  0  0  0  0  0  0  0
    3.6768   -5.5949    5.4268 H   0  0  0  0  0  0  0  0  0  0  0  0
  1  2  2  0
  1 43  1  0
  1 44  1  0
  2  7  1  0
  2  3  1  0
  3  4  1  0
  3  5  1  0
  3  6  1  0
  4 45  1  0
  4 46  1  0
  4 47  1  0
  5 48  1  0
  5 49  1  0
  5 50  1  0
  6 22  1  0
  6  7  1  0
  6 51  1  6
  7  8  1  1
  7 13  1  0
  8  9  1  0
  8 52  1  0
  8 53  1  0
  9 10  1  0
 10 11  1  0
 10 12  2  0
 11 54  1  0
 11 55  1  0
 11 56  1  0
 13 14  1  0
 13 15  1  0
 13 57  1  6
 14 58  1  0
 15 39  1  0
 15 16  1  6
 15 17  1  0
 16 59  1  0
 17 18  1  0
 18 42  1  0
 18 19  1  0
 18 60  1  6
 19 20  1  0
 19 61  1  0
 19 62  1  0
 20 21  1  0
 22 20  1  1
 20 63  1  6
 21 64  1  0
 21 65  1  0
 21 66  1  0
 22 42  1  0
 22 23  1  0
 23 24  1  0
 23 25  1  0
 23 67  1  1
 24 68  1  0
 25 26  1  0
 25 69  1  0
 25 70  1  0
 26 27  1  0
 26 28  1  0
 26 71  1  6
 27 72  1  0
 28 39  1  6
 28 29  1  0
 28 42  1  0
 29 41  1  0
 29 30  1  0
 29 73  1  1
 30 31  1  0
 30 74  1  0
 30 75  1  0
 31 32  1  0
 31 33  1  0
 31 76  1  6
 32 77  1  0
 33 34  1  0
 33 35  1  0
 33 36  1  0
 34 78  1  0
 34 79  1  0
 34 80  1  0
 35 81  1  0
 35 82  1  0
 35 83  1  0
 36 37  1  0
 36 41  1  0
 36 84  1  1
 37 38  1  0
 37 85  1  0
 37 86  1  0
 38 39  1  0
 38 87  1  0
 38 88  1  0
 39 40  1  1
 40 89  1  0
 41 90  1  0
 41 91  1  0
 42 92  1  1
M  END
>  <i_m_ct_stereo_status>  (35) 
1

>  <s_m_source_file>  (35) 
/var/tmp/pbs.5076255.sched01/tmpuvpulguu/0mmv31ww_.sdf

>  <i_m_source_file_index>  (35) 
22

>  <i_lp_mmshare_version>  (35) 
48012

>  <i_f3d_flags>  (35) 
0

>  <s_epik_input>  (35) 
W0NIM11DKD1PKU9bQ0gyXVtDQF0oW0NAQEhdMVtDQF0yMzQpKEMoPVtDSDJdKUMxKFtDSDNdKVtDSDNdKVtDQEBIXShbT0hdKVtDQEBdNShbT0hdKVtDQF02KFtPSF0pW0NAQF0oW0NASF0oW09IXSlbQ0gyXVtDQEBIXTNbT0hdKShbQ0hdNFtDSF0oTzUpW0NIMl1bQ0BIXTJbQ0gzXSlbQ0hdN1tDSDJdW0NAQEhdKFtPSF0pQyhbQ0gzXSkoW0NIM10pW0NAQEhdKFtDSDJdNylbQ0gyXVtDSDJdNg==

>  <s_epik_cmdline>  (35) 
J2VwaWtfcHl0aG9uJywgJy1waHQnLCAnMi4wJywgJy1waCcsICc3LjAnLCAnLXRuJywgJzgnLCAnLW1hJywgJzIwMCcsICctaW1hZScsICc8aW5maWxlLm1hZT4nLCAnLW9tYWUnLCAnPG91dGZpbGUubWFlPic=

>  <r_lp_tautomer_probability>  (35) 
1

>  <r_epik_Ionization_Penalty>  (35) 
3.51432e-06

>  <r_epik_Ionization_Penalty_Charging>  (35) 
0

>  <r_epik_Ionization_Penalty_Neutral>  (35) 
3.51432e-06

>  <r_epik_State_Penalty>  (35) 
-0

>  <r_epik_Charging_Adjusted_Penalty>  (35) 
0

>  <i_epik_Tot_Q>  (35) 
0

>  <i_epik_Tot_abs_Q>  (35) 
0

>  <s_epik_Chemistry_Notes>  (35) 
This compound has an ester and may undergo hydrolysis at high or low pH.

>  <s_lp_Force_Field>  (35) 
OPLS3e

>  <r_lp_Energy>  (35) 
207.681

>  <b_lp_Chiralities_Consistent>  (35) 
1

>  <s_lp_Variant>  (35) 
10:0-7

>  <s_i_glide_gridfile>  (35) 
pfpi4k_grid

>  <i_i_glide_lignum>  (35) 
22

>  <i_i_glide_rotatable_bonds>  (35) 
9

>  <r_i_docking_score>  (35) 
-2.94359

>  <r_i_glide_ligand_efficiency>  (35) 
-0.0700856

>  <r_i_glide_ligand_efficiency_sa>  (35) 
-0.243619

>  <r_i_glide_ligand_efficiency_ln>  (35) 
-0.621317

>  <r_i_glide_gscore>  (35) 
-2.94359

>  <r_i_glide_lipo>  (35) 
-0.412481

>  <r_i_glide_hbond>  (35) 
-0.32

>  <r_i_glide_metal>  (35) 
-0

>  <r_i_glide_rewards>  (35) 
-0.134642

>  <r_i_glide_evdw>  (35) 
-16.9548

>  <r_i_glide_ecoul>  (35) 
-8.26565

>  <r_i_glide_erotb>  (35) 
0.011114

>  <r_i_glide_esite>  (35) 
0

>  <r_i_glide_emodel>  (35) 
-22.6034

>  <r_i_glide_energy>  (35) 
-25.2204

>  <r_i_glide_einternal>  (35) 
9.55708

>  <r_i_glide_intrahb_reward>  (35) 
-0

>  <i_i_glide_confnum>  (35) 
2

>  <i_i_glide_posenum>  (35) 
26

>  <r_i_glide_eff_state_penalty>  (35) 
0

>  <ligand_id>  (35) 
10

>  <original_smiles>  (35) 
C=C1C(C)(C)C2C1(COC(C)=O)C(O)C1(O)OC3CC(C)C24C(O)CC(O)C2(C5CC(O)C(C)(C)C(CCC12O)C5)C34

>  <smiles>  (35) 
[H]OC1([H])C2(O[H])OC3([H])C([H])([H])C([H])(C([H])([H])[H])C4(C([H])(O[H])C([H])([H])C([H])(O[H])C5(C6([H])C([H])([H])C([H])(O[H])C(C([H])([H])[H])(C([H])([H])[H])C([H])(C([H])([H])C([H])([H])C25O[H])C6([H])[H])C34[H])C2([H])C(C([H])([H])[H])(C([H])([H])[H])C(=C([H])[H])C12C([H])([H])OC(=O)C([H])([H])[H]

$$$$
10:6:2
     RDKit          3D

 92 98  0  0  1  0  0  0  0  0999 V2000
    8.2143   -7.4020    0.5876 C   0  0  0  0  0  0  0  0  0  0  0  0
    7.5604   -6.9425    1.6798 C   0  0  0  0  0  0  0  0  0  0  0  0
    7.6014   -7.3674    3.1404 C   0  0  0  0  0  0  0  0  0  0  0  0
    7.7012   -8.8851    3.3053 C   0  0  0  0  0  0  0  0  0  0  0  0
    8.7774   -6.7461    3.9193 C   0  0  0  0  0  0  0  0  0  0  0  0
    6.2010   -6.7005    3.1227 C   0  0  2  0  0  0  0  0  0  0  0  0
    6.4473   -5.9088    1.8107 C   0  0  1  0  0  0  0  0  0  0  0  0
    7.1884   -4.5607    1.7179 C   0  0  0  0  0  0  0  0  0  0  0  0
    7.6762   -4.2653    0.4141 O   0  0  0  0  0  0  0  0  0  0  0  0
    7.6759   -2.9998   -0.0475 C   0  0  0  0  0  0  0  0  0  0  0  0
    8.1787   -2.9099   -1.4700 C   0  0  0  0  0  0  0  0  0  0  0  0
    7.2995   -1.9959    0.5500 O   0  0  0  0  0  0  0  0  0  0  0  0
    5.2238   -5.9750    0.8355 C   0  0  1  0  0  0  0  0  0  0  0  0
    4.9070   -7.3083    0.4803 O   0  0  0  0  0  0  0  0  0  0  0  0
    3.9539   -5.1589    1.3123 C   0  0  2  0  0  0  0  0  0  0  0  0
    3.5373   -4.4506    0.1596 O   0  0  0  0  0  0  0  0  0  0  0  0
    4.4378   -4.1996    2.2193 O   0  0  0  0  0  0  0  0  0  0  0  0
    4.1488   -4.2304    3.6203 C   0  0  2  0  0  0  0  0  0  0  0  0
    5.3287   -3.7105    4.4412 C   0  0  0  0  0  0  0  0  0  0  0  0
    6.1069   -4.9548    4.9504 C   0  0  1  0  0  0  0  0  0  0  0  0
    6.3999   -4.8584    6.4570 C   0  0  0  0  0  0  0  0  0  0  0  0
    5.3938   -6.2115    4.3703 C   0  0  2  0  0  0  0  0  0  0  0  0
    5.2032   -7.4456    5.2856 C   0  0  1  0  0  0  0  0  0  0  0  0
    4.5894   -7.1715    6.5312 O   0  0  0  0  0  0  0  0  0  0  0  0
    4.3032   -8.4983    4.5871 C   0  0  0  0  0  0  0  0  0  0  0  0
    3.3725   -7.9994    3.4325 C   0  0  1  0  0  0  0  0  0  0  0  0
    2.5431   -9.1036    3.1780 O   0  0  0  0  0  0  0  0  0  0  0  0
    2.8252   -6.4899    3.4630 C   0  0  2  0  0  0  0  0  0  0  0  0
    1.4955   -6.3866    4.4108 C   0  0  2  0  0  0  0  0  0  0  0  0
    1.0285   -7.5762    5.3240 C   0  0  0  0  0  0  0  0  0  0  0  0
   -0.0036   -8.6315    4.7242 C   0  0  1  0  0  0  0  0  0  0  0  0
   -0.8023   -9.0049    5.7978 O   0  0  0  0  0  0  0  0  0  0  0  0
   -0.8569   -8.2595    3.4355 C   0  0  0  0  0  0  0  0  0  0  0  0
   -0.9913   -9.4870    2.5343 C   0  0  0  0  0  0  0  0  0  0  0  0
   -2.2967   -7.8266    3.7282 C   0  0  0  0  0  0  0  0  0  0  0  0
   -0.0642   -7.1520    2.7538 C   0  0  1  0  0  0  0  0  0  0  0  0
    0.1944   -6.8609    1.2701 C   0  0  0  0  0  0  0  0  0  0  0  0
    1.7492   -6.6675    0.9657 C   0  0  0  0  0  0  0  0  0  0  0  0
    2.6197   -5.8197    1.9726 C   0  0  2  0  0  0  0  0  0  0  0  0
    1.8159   -4.6591    2.0580 O   0  0  0  0  0  0  0  0  0  0  0  0
    0.1775   -6.0311    3.7462 C   0  0  0  0  0  0  0  0  0  0  0  0
    3.9602   -5.6437    4.1411 C   0  0  2  0  0  0  0  0  0  0  0  0
    8.1734   -6.8855   -0.3395 H   0  0  0  0  0  0  0  0  0  0  0  0
    8.9254   -8.2092    0.6540 H   0  0  0  0  0  0  0  0  0  0  0  0
    7.5606   -9.1838    4.3422 H   0  0  0  0  0  0  0  0  0  0  0  0
    8.6909   -9.2480    3.0368 H   0  0  0  0  0  0  0  0  0  0  0  0
    6.9697   -9.4280    2.7061 H   0  0  0  0  0  0  0  0  0  0  0  0
    8.5846   -6.7886    4.9919 H   0  0  0  0  0  0  0  0  0  0  0  0
    8.9832   -5.7144    3.6756 H   0  0  0  0  0  0  0  0  0  0  0  0
    9.7126   -7.2867    3.7423 H   0  0  0  0  0  0  0  0  0  0  0  0
    5.6868   -7.5642    2.7744 H   0  0  0  0  0  0  0  0  0  0  0  0
    6.5691   -3.7312    2.0537 H   0  0  0  0  0  0  0  0  0  0  0  0
    8.0497   -4.5952    2.3595 H   0  0  0  0  0  0  0  0  0  0  0  0
    9.1553   -3.3860   -1.5274 H   0  0  0  0  0  0  0  0  0  0  0  0
    8.2590   -1.8728   -1.7946 H   0  0  0  0  0  0  0  0  0  0  0  0
    7.4953   -3.4534   -2.1225 H   0  0  0  0  0  0  0  0  0  0  0  0
    5.5602   -5.5367   -0.1128 H   0  0  0  0  0  0  0  0  0  0  0  0
    4.5987   -7.7742    1.2440 H   0  0  0  0  0  0  0  0  0  0  0  0
    4.3135   -4.1314   -0.2892 H   0  0  0  0  0  0  0  0  0  0  0  0
    3.2817   -3.6031    3.8288 H   0  0  0  0  0  0  0  0  0  0  0  0
    5.9012   -2.9834    3.8682 H   0  0  0  0  0  0  0  0  0  0  0  0
    4.9575   -3.1437    5.2907 H   0  0  0  0  0  0  0  0  0  0  0  0
    7.0816   -4.9931    4.5109 H   0  0  0  0  0  0  0  0  0  0  0  0
    5.4845   -4.7866    7.0462 H   0  0  0  0  0  0  0  0  0  0  0  0
    7.0015   -3.9699    6.6736 H   0  0  0  0  0  0  0  0  0  0  0  0
    6.9744   -5.7204    6.7995 H   0  0  0  0  0  0  0  0  0  0  0  0
    6.1740   -7.8882    5.5149 H   0  0  0  0  0  0  0  0  0  0  0  0
    4.5520   -7.9801    7.0233 H   0  0  0  0  0  0  0  0  0  0  0  0
    4.9453   -9.2624    4.1459 H   0  0  0  0  0  0  0  0  0  0  0  0
    3.7398   -9.0492    5.3423 H   0  0  0  0  0  0  0  0  0  0  0  0
    3.8802   -8.0776    2.4937 H   0  0  0  0  0  0  0  0  0  0  0  0
    2.0556   -9.2902    3.9667 H   0  0  0  0  0  0  0  0  0  0  0  0
    1.6389   -5.5412    5.0736 H   0  0  0  0  0  0  0  0  0  0  0  0
    1.8692   -8.1025    5.7603 H   0  0  0  0  0  0  0  0  0  0  0  0
    0.5511   -7.1013    6.1872 H   0  0  0  0  0  0  0  0  0  0  0  0
    0.5309   -9.5531    4.5145 H   0  0  0  0  0  0  0  0  0  0  0  0
   -1.3564   -9.7549    5.5223 H   0  0  0  0  0  0  0  0  0  0  0  0
   -1.6061   -9.2909    1.6492 H   0  0  0  0  0  0  0  0  0  0  0  0
   -1.4966  -10.2478    3.1207 H   0  0  0  0  0  0  0  0  0  0  0  0
   -0.0231   -9.8855    2.2158 H   0  0  0  0  0  0  0  0  0  0  0  0
   -2.7212   -7.4253    2.8136 H   0  0  0  0  0  0  0  0  0  0  0  0
   -2.3717   -7.0875    4.5201 H   0  0  0  0  0  0  0  0  0  0  0  0
   -2.9074   -8.6615    4.0642 H   0  0  0  0  0  0  0  0  0  0  0  0
    0.8039   -7.7650    2.7366 H   0  0  0  0  0  0  0  0  0  0  0  0
   -0.1583   -7.6963    0.6608 H   0  0  0  0  0  0  0  0  0  0  0  0
   -0.4006   -6.0105    0.9427 H   0  0  0  0  0  0  0  0  0  0  0  0
    2.1900   -7.6572    0.8929 H   0  0  0  0  0  0  0  0  0  0  0  0
    1.8225   -6.2521   -0.0345 H   0  0  0  0  0  0  0  0  0  0  0  0
    2.3462   -3.9895    2.4677 H   0  0  0  0  0  0  0  0  0  0  0  0
   -0.5946   -5.9709    4.5069 H   0  0  0  0  0  0  0  0  0  0  0  0
    0.0894   -5.0354    3.3576 H   0  0  0  0  0  0  0  0  0  0  0  0
    3.6252   -5.4515    5.1544 H   0  0  0  0  0  0  0  0  0  0  0  0
  1  2  2  0
  1 43  1  0
  1 44  1  0
  2  7  1  0
  2  3  1  0
  3  4  1  0
  3  5  1  0
  3  6  1  0
  4 45  1  0
  4 46  1  0
  4 47  1  0
  5 48  1  0
  5 49  1  0
  5 50  1  0
  6 22  1  0
  6  7  1  0
  6 51  1  6
  7  8  1  1
  7 13  1  0
  8  9  1  0
  8 52  1  0
  8 53  1  0
  9 10  1  0
 10 11  1  0
 10 12  2  0
 11 54  1  0
 11 55  1  0
 11 56  1  0
 13 14  1  0
 13 15  1  0
 13 57  1  6
 14 58  1  0
 15 39  1  0
 15 16  1  6
 15 17  1  0
 16 59  1  0
 17 18  1  0
 18 42  1  0
 18 19  1  0
 18 60  1  6
 19 20  1  0
 19 61  1  0
 19 62  1  0
 20 21  1  0
 22 20  1  1
 20 63  1  6
 21 64  1  0
 21 65  1  0
 21 66  1  0
 22 42  1  0
 22 23  1  0
 23 24  1  0
 23 25  1  0
 23 67  1  1
 24 68  1  0
 25 26  1  0
 25 69  1  0
 25 70  1  0
 26 27  1  0
 26 28  1  0
 26 71  1  6
 27 72  1  0
 28 39  1  6
 28 29  1  0
 28 42  1  0
 29 41  1  0
 29 30  1  0
 29 73  1  1
 30 31  1  0
 30 74  1  0
 30 75  1  0
 31 32  1  0
 31 33  1  0
 31 76  1  6
 32 77  1  0
 33 34  1  0
 33 35  1  0
 33 36  1  0
 34 78  1  0
 34 79  1  0
 34 80  1  0
 35 81  1  0
 35 82  1  0
 35 83  1  0
 36 37  1  0
 36 41  1  0
 36 84  1  1
 37 38  1  0
 37 85  1  0
 37 86  1  0
 38 39  1  0
 38 87  1  0
 38 88  1  0
 39 40  1  1
 40 89  1  0
 41 90  1  0
 41 91  1  0
 42 92  1  1
M  END
>  <i_m_ct_stereo_status>  (36) 
1

>  <s_m_source_file>  (36) 
/var/tmp/pbs.5076255.sched01/tmpuvpulguu/0mmv31ww_.sdf

>  <i_m_source_file_index>  (36) 
22

>  <i_lp_mmshare_version>  (36) 
48012

>  <i_f3d_flags>  (36) 
0

>  <s_epik_input>  (36) 
W0NIM11DKD1PKU9bQ0gyXVtDQF0oW0NAQEhdMVtDQF0yMzQpKEMoPVtDSDJdKUMxKFtDSDNdKVtDSDNdKVtDQEBIXShbT0hdKVtDQEBdNShbT0hdKVtDQF02KFtPSF0pW0NAQF0oW0NASF0oW09IXSlbQ0gyXVtDQEBIXTNbT0hdKShbQ0hdNFtDSF0oTzUpW0NIMl1bQ0BIXTJbQ0gzXSlbQ0hdN1tDSDJdW0NAQEhdKFtPSF0pQyhbQ0gzXSkoW0NIM10pW0NAQEhdKFtDSDJdNylbQ0gyXVtDSDJdNg==

>  <s_epik_cmdline>  (36) 
J2VwaWtfcHl0aG9uJywgJy1waHQnLCAnMi4wJywgJy1waCcsICc3LjAnLCAnLXRuJywgJzgnLCAnLW1hJywgJzIwMCcsICctaW1hZScsICc8aW5maWxlLm1hZT4nLCAnLW9tYWUnLCAnPG91dGZpbGUubWFlPic=

>  <r_lp_tautomer_probability>  (36) 
1

>  <r_epik_Ionization_Penalty>  (36) 
3.51432e-06

>  <r_epik_Ionization_Penalty_Charging>  (36) 
0

>  <r_epik_Ionization_Penalty_Neutral>  (36) 
3.51432e-06

>  <r_epik_State_Penalty>  (36) 
-0

>  <r_epik_Charging_Adjusted_Penalty>  (36) 
0

>  <i_epik_Tot_Q>  (36) 
0

>  <i_epik_Tot_abs_Q>  (36) 
0

>  <s_epik_Chemistry_Notes>  (36) 
This compound has an ester and may undergo hydrolysis at high or low pH.

>  <s_lp_Force_Field>  (36) 
OPLS3e

>  <r_lp_Energy>  (36) 
207.681

>  <b_lp_Chiralities_Consistent>  (36) 
1

>  <s_lp_Variant>  (36) 
10:0-7

>  <s_i_glide_gridfile>  (36) 
pfpi4k_grid

>  <i_i_glide_lignum>  (36) 
22

>  <i_i_glide_rotatable_bonds>  (36) 
9

>  <r_i_docking_score>  (36) 
-2.4491

>  <r_i_glide_ligand_efficiency>  (36) 
-0.058312

>  <r_i_glide_ligand_efficiency_sa>  (36) 
-0.202694

>  <r_i_glide_ligand_efficiency_ln>  (36) 
-0.516943

>  <r_i_glide_gscore>  (36) 
-2.4491

>  <r_i_glide_lipo>  (36) 
-0.452582

>  <r_i_glide_hbond>  (36) 
-0.16

>  <r_i_glide_metal>  (36) 
-0

>  <r_i_glide_rewards>  (36) 
-0.221421

>  <r_i_glide_evdw>  (36) 
-15.6592

>  <r_i_glide_ecoul>  (36) 
-5.62169

>  <r_i_glide_erotb>  (36) 
0.011114

>  <r_i_glide_esite>  (36) 
0

>  <r_i_glide_emodel>  (36) 
-21.7012

>  <r_i_glide_energy>  (36) 
-21.2809

>  <r_i_glide_einternal>  (36) 
2.00922

>  <r_i_glide_intrahb_reward>  (36) 
-0

>  <i_i_glide_confnum>  (36) 
3

>  <i_i_glide_posenum>  (36) 
16

>  <r_i_glide_eff_state_penalty>  (36) 
0

>  <ligand_id>  (36) 
10

>  <original_smiles>  (36) 
C=C1C(C)(C)C2C1(COC(C)=O)C(O)C1(O)OC3CC(C)C24C(O)CC(O)C2(C5CC(O)C(C)(C)C(CCC12O)C5)C34

>  <smiles>  (36) 
[H]OC1([H])C2(O[H])OC3([H])C([H])([H])C([H])(C([H])([H])[H])C4(C([H])(O[H])C([H])([H])C([H])(O[H])C5(C6([H])C([H])([H])C([H])(O[H])C(C([H])([H])[H])(C([H])([H])[H])C([H])(C([H])([H])C([H])([H])C25O[H])C6([H])[H])C34[H])C2([H])C(C([H])([H])[H])(C([H])([H])[H])C(=C([H])[H])C12C([H])([H])OC(=O)C([H])([H])[H]

$$$$
10:7:0
     RDKit          3D

 92 98  0  0  1  0  0  0  0  0999 V2000
    8.2190   -7.2475    0.6687 C   0  0  0  0  0  0  0  0  0  0  0  0
    7.6067   -6.7296    1.7574 C   0  0  0  0  0  0  0  0  0  0  0  0
    7.7641   -7.0193    3.2516 C   0  0  0  0  0  0  0  0  0  0  0  0
    8.0284   -8.4913    3.5379 C   0  0  0  0  0  0  0  0  0  0  0  0
    8.8880   -6.2168    3.9372 C   0  0  0  0  0  0  0  0  0  0  0  0
    6.2810   -6.5226    3.2301 C   0  0  2  0  0  0  0  0  0  0  0  0
    6.4504   -5.7501    1.8708 C   0  0  1  0  0  0  0  0  0  0  0  0
    7.1585   -4.3518    1.6968 C   0  0  0  0  0  0  0  0  0  0  0  0
    7.3852   -3.9356    0.3398 O   0  0  0  0  0  0  0  0  0  0  0  0
    6.8732   -2.8132   -0.2257 C   0  0  0  0  0  0  0  0  0  0  0  0
    5.6406   -2.2578    0.4755 C   0  0  0  0  0  0  0  0  0  0  0  0
    7.2513   -2.3570   -1.3082 O   0  0  0  0  0  0  0  0  0  0  0  0
    5.1677   -5.8878    0.9300 C   0  0  1  0  0  0  0  0  0  0  0  0
    4.9308   -7.2314    0.5634 O   0  0  0  0  0  0  0  0  0  0  0  0
    3.7808   -5.1639    1.3480 C   0  0  2  0  0  0  0  0  0  0  0  0
    3.2535   -4.6856    0.1354 O   0  0  0  0  0  0  0  0  0  0  0  0
    4.0490   -4.0240    2.1826 O   0  0  0  0  0  0  0  0  0  0  0  0
    4.2096   -4.2357    3.5817 C   0  0  1  0  0  0  0  0  0  0  0  0
    5.1553   -3.5694    4.5876 C   0  0  0  0  0  0  0  0  0  0  0  0
    6.0230   -4.7596    5.1323 C   0  0  1  0  0  0  0  0  0  0  0  0
    6.1881   -4.6630    6.6593 C   0  0  0  0  0  0  0  0  0  0  0  0
    5.4208   -6.0840    4.4942 C   0  0  2  0  0  0  0  0  0  0  0  0
    5.2424   -7.3342    5.3946 C   0  0  1  0  0  0  0  0  0  0  0  0
    4.5433   -7.0785    6.6014 O   0  0  0  0  0  0  0  0  0  0  0  0
    4.4432   -8.4416    4.6554 C   0  0  0  0  0  0  0  0  0  0  0  0
    3.4950   -7.9975    3.4930 C   0  0  1  0  0  0  0  0  0  0  0  0
    2.7348   -9.1478    3.2185 O   0  0  0  0  0  0  0  0  0  0  0  0
    2.8526   -6.5315    3.5440 C   0  0  2  0  0  0  0  0  0  0  0  0
    1.5349   -6.4953    4.5289 C   0  0  2  0  0  0  0  0  0  0  0  0
    1.1763   -7.7006    5.4696 C   0  0  0  0  0  0  0  0  0  0  0  0
    0.2093   -8.8517    4.9189 C   0  0  1  0  0  0  0  0  0  0  0  0
   -0.5034   -9.3108    6.0335 O   0  0  0  0  0  0  0  0  0  0  0  0
   -0.7075   -8.5382    3.6428 C   0  0  0  0  0  0  0  0  0  0  0  0
   -0.7922   -9.7578    2.7145 C   0  0  0  0  0  0  0  0  0  0  0  0
   -2.1385   -8.1537    4.0273 C   0  0  0  0  0  0  0  0  0  0  0  0
   -0.0367   -7.3674    2.9388 C   0  0  1  0  0  0  0  0  0  0  0  0
    0.1568   -7.0593    1.4435 C   0  0  0  0  0  0  0  0  0  0  0  0
    1.6773   -6.8143    1.0806 C   0  0  0  0  0  0  0  0  0  0  0  0
    2.5513   -5.9129    2.0672 C   0  0  2  0  0  0  0  0  0  0  0  0
    1.7046   -4.8039    2.1984 O   0  0  0  0  0  0  0  0  0  0  0  0
    0.1708   -6.2170    3.9041 C   0  0  0  0  0  0  0  0  0  0  0  0
    3.9573   -5.6042    4.2002 C   0  0  2  0  0  0  0  0  0  0  0  0
    7.9832   -6.7918   -0.2701 H   0  0  0  0  0  0  0  0  0  0  0  0
    8.9489   -8.0194    0.7201 H   0  0  0  0  0  0  0  0  0  0  0  0
    7.9632   -8.6915    4.6097 H   0  0  0  0  0  0  0  0  0  0  0  0
    9.0340   -8.7795    3.2327 H   0  0  0  0  0  0  0  0  0  0  0  0
    7.3273   -9.1623    3.0355 H   0  0  0  0  0  0  0  0  0  0  0  0
    8.7801   -6.2802    5.0286 H   0  0  0  0  0  0  0  0  0  0  0  0
    8.9199   -5.1609    3.6918 H   0  0  0  0  0  0  0  0  0  0  0  0
    9.8684   -6.6293    3.6814 H   0  0  0  0  0  0  0  0  0  0  0  0
    5.8287   -7.4472    2.9204 H   0  0  0  0  0  0  0  0  0  0  0  0
    6.6607   -3.5744    2.2770 H   0  0  0  0  0  0  0  0  0  0  0  0
    8.1974   -4.4551    2.0292 H   0  0  0  0  0  0  0  0  0  0  0  0
    5.7350   -1.9948    1.5426 H   0  0  0  0  0  0  0  0  0  0  0  0
    4.9920   -3.1104    0.4047 H   0  0  0  0  0  0  0  0  0  0  0  0
    5.1254   -1.4628   -0.0541 H   0  0  0  0  0  0  0  0  0  0  0  0
    5.4480   -5.4474   -0.0235 H   0  0  0  0  0  0  0  0  0  0  0  0
    5.6833   -7.5596    0.0891 H   0  0  0  0  0  0  0  0  0  0  0  0
    3.9670   -4.3066   -0.3711 H   0  0  0  0  0  0  0  0  0  0  0  0
    5.1074   -4.3801    3.0775 H   0  0  0  0  0  0  0  0  0  0  0  0
    5.7511   -2.7858    4.1443 H   0  0  0  0  0  0  0  0  0  0  0  0
    4.5903   -3.0905    5.3830 H   0  0  0  0  0  0  0  0  0  0  0  0
    7.0395   -4.6567    4.7808 H   0  0  0  0  0  0  0  0  0  0  0  0
    5.2340   -4.6518    7.1949 H   0  0  0  0  0  0  0  0  0  0  0  0
    6.7110   -3.7421    6.9135 H   0  0  0  0  0  0  0  0  0  0  0  0
    6.7922   -5.4891    7.0385 H   0  0  0  0  0  0  0  0  0  0  0  0
    6.2234   -7.7130    5.6764 H   0  0  0  0  0  0  0  0  0  0  0  0
    4.5185   -7.8813    7.1056 H   0  0  0  0  0  0  0  0  0  0  0  0
    5.1571   -9.1387    4.2100 H   0  0  0  0  0  0  0  0  0  0  0  0
    3.9057   -9.0527    5.3812 H   0  0  0  0  0  0  0  0  0  0  0  0
    4.0408   -8.0156    2.5690 H   0  0  0  0  0  0  0  0  0  0  0  0
    2.3676   -9.0678    2.3484 H   0  0  0  0  0  0  0  0  0  0  0  0
    1.6359   -5.6259    5.1771 H   0  0  0  0  0  0  0  0  0  0  0  0
    2.0709   -8.1515    5.8864 H   0  0  0  0  0  0  0  0  0  0  0  0
    0.6906   -7.2396    6.3325 H   0  0  0  0  0  0  0  0  0  0  0  0
    0.8463   -9.6893    4.6436 H   0  0  0  0  0  0  0  0  0  0  0  0
   -1.1209  -10.0189    5.7007 H   0  0  0  0  0  0  0  0  0  0  0  0
   -1.4490   -9.5735    1.8625 H   0  0  0  0  0  0  0  0  0  0  0  0
   -1.1746  -10.6039    3.2745 H   0  0  0  0  0  0  0  0  0  0  0  0
    0.1905  -10.0639    2.3504 H   0  0  0  0  0  0  0  0  0  0  0  0
   -2.6838   -7.7163    3.1856 H   0  0  0  0  0  0  0  0  0  0  0  0
   -2.1503   -7.4478    4.8495 H   0  0  0  0  0  0  0  0  0  0  0  0
   -2.6358   -9.0510    4.3512 H   0  0  0  0  0  0  0  0  0  0  0  0
    0.8710   -7.9136    2.8970 H   0  0  0  0  0  0  0  0  0  0  0  0
   -0.1933   -7.8953    0.8547 H   0  0  0  0  0  0  0  0  0  0  0  0
   -0.4646   -6.2209    1.1368 H   0  0  0  0  0  0  0  0  0  0  0  0
    2.1902   -7.7643    0.9543 H   0  0  0  0  0  0  0  0  0  0  0  0
    1.6401   -6.3926    0.0858 H   0  0  0  0  0  0  0  0  0  0  0  0
    2.2666   -4.0997    2.4881 H   0  0  0  0  0  0  0  0  0  0  0  0
   -0.5639   -6.1775    4.7025 H   0  0  0  0  0  0  0  0  0  0  0  0
   -0.0320   -5.2376    3.5076 H   0  0  0  0  0  0  0  0  0  0  0  0
    3.5755   -5.3622    5.1966 H   0  0  0  0  0  0  0  0  0  0  0  0
  1  2  2  0
  1 43  1  0
  1 44  1  0
  2  7  1  0
  2  3  1  0
  3  4  1  0
  3  5  1  0
  3  6  1  0
  4 45  1  0
  4 46  1  0
  4 47  1  0
  5 48  1  0
  5 49  1  0
  5 50  1  0
  6 22  1  0
  6  7  1  0
  6 51  1  6
  7  8  1  1
  7 13  1  0
  8  9  1  0
  8 52  1  0
  8 53  1  0
  9 10  1  0
 10 11  1  0
 10 12  2  0
 11 54  1  0
 11 55  1  0
 11 56  1  0
 13 14  1  0
 13 15  1  0
 13 57  1  6
 14 58  1  0
 15 39  1  0
 15 16  1  6
 15 17  1  0
 16 59  1  0
 17 18  1  0
 18 42  1  0
 18 19  1  0
 18 60  1  1
 19 20  1  0
 19 61  1  0
 19 62  1  0
 20 21  1  0
 22 20  1  1
 20 63  1  6
 21 64  1  0
 21 65  1  0
 21 66  1  0
 22 42  1  0
 22 23  1  0
 23 24  1  0
 23 25  1  0
 23 67  1  1
 24 68  1  0
 25 26  1  0
 25 69  1  0
 25 70  1  0
 26 27  1  0
 26 28  1  0
 26 71  1  6
 27 72  1  0
 28 39  1  6
 28 29  1  0
 28 42  1  0
 29 41  1  0
 29 30  1  0
 29 73  1  1
 30 31  1  0
 30 74  1  0
 30 75  1  0
 31 32  1  0
 31 33  1  0
 31 76  1  6
 32 77  1  0
 33 34  1  0
 33 35  1  0
 33 36  1  0
 34 78  1  0
 34 79  1  0
 34 80  1  0
 35 81  1  0
 35 82  1  0
 35 83  1  0
 36 37  1  0
 36 41  1  0
 36 84  1  1
 37 38  1  0
 37 85  1  0
 37 86  1  0
 38 39  1  0
 38 87  1  0
 38 88  1  0
 39 40  1  1
 40 89  1  0
 41 90  1  0
 41 91  1  0
 42 92  1  1
M  END
>  <i_m_ct_stereo_status>  (37) 
1

>  <s_m_source_file>  (37) 
/var/tmp/pbs.5076255.sched01/tmpuvpulguu/0mmv31ww_.sdf

>  <i_m_source_file_index>  (37) 
23

>  <i_lp_mmshare_version>  (37) 
48012

>  <i_f3d_flags>  (37) 
0

>  <s_epik_input>  (37) 
W0NIM11DKD1PKU9bQ0gyXVtDQF0oW0NAQEhdMVtDQF0yMzQpKEMoPVtDSDJdKUMxKFtDSDNdKVtDSDNdKVtDQEBIXShbT0hdKVtDQEBdNShbT0hdKVtDQF02KFtPSF0pW0NAQF0oW0NASF0oW09IXSlbQ0gyXVtDQEBIXTNbT0hdKShbQ0hdNFtDSF0oTzUpW0NIMl1bQ0BIXTJbQ0gzXSlbQ0hdN1tDSDJdW0NAQEhdKFtPSF0pQyhbQ0gzXSkoW0NIM10pW0NAQEhdKFtDSDJdNylbQ0gyXVtDSDJdNg==

>  <s_epik_cmdline>  (37) 
J2VwaWtfcHl0aG9uJywgJy1waHQnLCAnMi4wJywgJy1waCcsICc3LjAnLCAnLXRuJywgJzgnLCAnLW1hJywgJzIwMCcsICctaW1hZScsICc8aW5maWxlLm1hZT4nLCAnLW9tYWUnLCAnPG91dGZpbGUubWFlPic=

>  <r_lp_tautomer_probability>  (37) 
1

>  <r_epik_Ionization_Penalty>  (37) 
3.51432e-06

>  <r_epik_Ionization_Penalty_Charging>  (37) 
0

>  <r_epik_Ionization_Penalty_Neutral>  (37) 
3.51432e-06

>  <r_epik_State_Penalty>  (37) 
-0

>  <r_epik_Charging_Adjusted_Penalty>  (37) 
0

>  <i_epik_Tot_Q>  (37) 
0

>  <i_epik_Tot_abs_Q>  (37) 
0

>  <s_epik_Chemistry_Notes>  (37) 
This compound has an ester and may undergo hydrolysis at high or low pH.

>  <s_lp_Force_Field>  (37) 
OPLS3e

>  <r_lp_Energy>  (37) 
261.914

>  <b_lp_Chiralities_Consistent>  (37) 
1

>  <s_lp_Variant>  (37) 
10:0-8

>  <s_i_glide_gridfile>  (37) 
pfpi4k_grid

>  <i_i_glide_lignum>  (37) 
23

>  <i_i_glide_rotatable_bonds>  (37) 
9

>  <r_i_docking_score>  (37) 
-2.46126

>  <r_i_glide_ligand_efficiency>  (37) 
-0.0586014

>  <r_i_glide_ligand_efficiency_sa>  (37) 
-0.2037

>  <r_i_glide_ligand_efficiency_ln>  (37) 
-0.519508

>  <r_i_glide_gscore>  (37) 
-2.46126

>  <r_i_glide_lipo>  (37) 
-0.327646

>  <r_i_glide_hbond>  (37) 
-0.32

>  <r_i_glide_metal>  (37) 
-0

>  <r_i_glide_rewards>  (37) 
-0.0781008

>  <r_i_glide_evdw>  (37) 
-15.8493

>  <r_i_glide_ecoul>  (37) 
-6.4007

>  <r_i_glide_erotb>  (37) 
0.011114

>  <r_i_glide_esite>  (37) 
0

>  <r_i_glide_emodel>  (37) 
-18.8731

>  <r_i_glide_energy>  (37) 
-22.25

>  <r_i_glide_einternal>  (37) 
7.83885

>  <r_i_glide_intrahb_reward>  (37) 
-0

>  <i_i_glide_confnum>  (37) 
2

>  <i_i_glide_posenum>  (37) 
5

>  <r_i_glide_eff_state_penalty>  (37) 
0

>  <ligand_id>  (37) 
10

>  <original_smiles>  (37) 
C=C1C(C)(C)C2C1(COC(C)=O)C(O)C1(O)OC3CC(C)C24C(O)CC(O)C2(C5CC(O)C(C)(C)C(CCC12O)C5)C34

>  <smiles>  (37) 
[H]OC1([H])C2(O[H])OC3([H])C([H])([H])C([H])(C([H])([H])[H])C4(C([H])(O[H])C([H])([H])C([H])(O[H])C5(C6([H])C([H])([H])C([H])(O[H])C(C([H])([H])[H])(C([H])([H])[H])C([H])(C([H])([H])C([H])([H])C25O[H])C6([H])[H])C34[H])C2([H])C(C([H])([H])[H])(C([H])([H])[H])C(=C([H])[H])C12C([H])([H])OC(=O)C([H])([H])[H]

$$$$
10:7:1
     RDKit          3D

 92 98  0  0  1  0  0  0  0  0999 V2000
    2.4160    0.8267    2.9147 C   0  0  0  0  0  0  0  0  0  0  0  0
    2.5746    0.7586    4.2452 C   0  0  0  0  0  0  0  0  0  0  0  0
    3.8358    0.8246    5.1355 C   0  0  0  0  0  0  0  0  0  0  0  0
    5.0893    0.2446    4.4498 C   0  0  0  0  0  0  0  0  0  0  0  0
    4.2122    2.2400    5.6076 C   0  0  0  0  0  0  0  0  0  0  0  0
    2.9774   -0.1341    6.0072 C   0  0  2  0  0  0  0  0  0  0  0  0
    1.6218    0.3138    5.3562 C   0  0  1  0  0  0  0  0  0  0  0  0
    0.8318    1.6315    5.7270 C   0  0  0  0  0  0  0  0  0  0  0  0
   -0.0244    2.0884    4.6852 O   0  0  0  0  0  0  0  0  0  0  0  0
   -1.3370    1.8338    4.7593 C   0  0  0  0  0  0  0  0  0  0  0  0
   -2.1415    2.6062    3.7335 C   0  0  0  0  0  0  0  0  0  0  0  0
   -1.8729    1.0749    5.5624 O   0  0  0  0  0  0  0  0  0  0  0  0
    0.6471   -0.9105    5.0933 C   0  0  1  0  0  0  0  0  0  0  0  0
    1.1994   -1.8644    4.2102 O   0  0  0  0  0  0  0  0  0  0  0  0
   -0.0598   -1.6011    6.3689 C   0  0  2  0  0  0  0  0  0  0  0  0
   -1.3896   -1.7942    5.8980 O   0  0  0  0  0  0  0  0  0  0  0  0
   -0.1372   -0.6696    7.4504 O   0  0  0  0  0  0  0  0  0  0  0  0
    0.9847   -0.5801    8.3573 C   0  0  1  0  0  0  0  0  0  0  0  0
    1.5798    0.6474    9.0618 C   0  0  0  0  0  0  0  0  0  0  0  0
    3.0271    0.7575    8.4522 C   0  0  1  0  0  0  0  0  0  0  0  0
    4.0743    1.0691    9.5380 C   0  0  0  0  0  0  0  0  0  0  0  0
    3.2419   -0.5217    7.5316 C   0  0  2  0  0  0  0  0  0  0  0  0
    4.5881   -1.2880    7.6047 C   0  0  1  0  0  0  0  0  0  0  0  0
    5.0149   -1.6381    8.9130 O   0  0  0  0  0  0  0  0  0  0  0  0
    4.5028   -2.6179    6.8124 C   0  0  0  0  0  0  0  0  0  0  0  0
    3.0818   -3.2443    6.5969 C   0  0  1  0  0  0  0  0  0  0  0  0
    3.3606   -4.5352    6.1056 O   0  0  0  0  0  0  0  0  0  0  0  0
    1.9364   -2.9746    7.6808 C   0  0  2  0  0  0  0  0  0  0  0  0
    2.0985   -3.9824    8.9717 C   0  0  2  0  0  0  0  0  0  0  0  0
    3.3850   -4.8869    9.1702 C   0  0  0  0  0  0  0  0  0  0  0  0
    3.3917   -6.3785    8.5980 C   0  0  1  0  0  0  0  0  0  0  0  0
    4.1795   -7.1857    9.4485 O   0  0  0  0  0  0  0  0  0  0  0  0
    2.0091   -7.0802    8.2200 C   0  0  0  0  0  0  0  0  0  0  0  0
    2.1877   -7.9085    6.9312 C   0  0  0  0  0  0  0  0  0  0  0  0
    1.4878   -8.0405    9.3168 C   0  0  0  0  0  0  0  0  0  0  0  0
    1.0384   -5.9005    7.9946 C   0  0  1  0  0  0  0  0  0  0  0  0
   -0.0869   -5.6741    6.9661 C   0  0  0  0  0  0  0  0  0  0  0  0
    0.0457   -4.2788    6.2179 C   0  0  0  0  0  0  0  0  0  0  0  0
    0.4125   -2.9842    7.0565 C   0  0  2  0  0  0  0  0  0  0  0  0
   -0.5511   -3.0960    8.1050 O   0  0  0  0  0  0  0  0  0  0  0  0
    1.0036   -5.0208    9.2279 C   0  0  0  0  0  0  0  0  0  0  0  0
    2.1817   -1.4891    8.1773 C   0  0  2  0  0  0  0  0  0  0  0  0
    1.4456    0.6663    2.4632 H   0  0  0  0  0  0  0  0  0  0  0  0
    3.2364    1.0821    2.2606 H   0  0  0  0  0  0  0  0  0  0  0  0
    5.9116    0.1546    5.1554 H   0  0  0  0  0  0  0  0  0  0  0  0
    5.4530    0.8944    3.6584 H   0  0  0  0  0  0  0  0  0  0  0  0
    4.9298   -0.7438    4.0190 H   0  0  0  0  0  0  0  0  0  0  0  0
    4.9673    2.1852    6.3980 H   0  0  0  0  0  0  0  0  0  0  0  0
    3.4030    2.8586    5.9945 H   0  0  0  0  0  0  0  0  0  0  0  0
    4.6177    2.8232    4.7815 H   0  0  0  0  0  0  0  0  0  0  0  0
    3.1999   -1.0308    5.4658 H   0  0  0  0  0  0  0  0  0  0  0  0
    0.2354    1.5918    6.6446 H   0  0  0  0  0  0  0  0  0  0  0  0
    1.5159    2.4645    5.8954 H   0  0  0  0  0  0  0  0  0  0  0  0
   -1.6417    2.5466    2.7661 H   0  0  0  0  0  0  0  0  0  0  0  0
   -2.2244    3.6504    4.0434 H   0  0  0  0  0  0  0  0  0  0  0  0
   -3.1368    2.1661    3.6619 H   0  0  0  0  0  0  0  0  0  0  0  0
   -0.1442   -0.5446    4.4494 H   0  0  0  0  0  0  0  0  0  0  0  0
    1.4123   -1.4264    3.4066 H   0  0  0  0  0  0  0  0  0  0  0  0
   -1.6410   -1.0079    5.4519 H   0  0  0  0  0  0  0  0  0  0  0  0
    1.0923    0.0712    7.5476 H   0  0  0  0  0  0  0  0  0  0  0  0
    0.9944    1.5592    8.9245 H   0  0  0  0  0  0  0  0  0  0  0  0
    1.6395    0.4816   10.1399 H   0  0  0  0  0  0  0  0  0  0  0  0
    3.0067    1.6307    7.8111 H   0  0  0  0  0  0  0  0  0  0  0  0
    4.0782    0.3117   10.3226 H   0  0  0  0  0  0  0  0  0  0  0  0
    3.8628    2.0263   10.0188 H   0  0  0  0  0  0  0  0  0  0  0  0
    5.0785    1.1317    9.1183 H   0  0  0  0  0  0  0  0  0  0  0  0
    5.3775   -0.6664    7.1887 H   0  0  0  0  0  0  0  0  0  0  0  0
    4.3446   -2.1624    9.3160 H   0  0  0  0  0  0  0  0  0  0  0  0
    4.9111   -2.4472    5.8159 H   0  0  0  0  0  0  0  0  0  0  0  0
    5.2015   -3.3327    7.2401 H   0  0  0  0  0  0  0  0  0  0  0  0
    2.6793   -2.8760    5.6779 H   0  0  0  0  0  0  0  0  0  0  0  0
    3.7646   -5.0263    6.7973 H   0  0  0  0  0  0  0  0  0  0  0  0
    2.0391   -3.3712    9.8639 H   0  0  0  0  0  0  0  0  0  0  0  0
    4.2864   -4.3765    8.8573 H   0  0  0  0  0  0  0  0  0  0  0  0
    3.5095   -4.9574   10.2550 H   0  0  0  0  0  0  0  0  0  0  0  0
    3.9853   -6.3531    7.6879 H   0  0  0  0  0  0  0  0  0  0  0  0
    3.7213   -7.2906   10.2657 H   0  0  0  0  0  0  0  0  0  0  0  0
    1.2596   -8.4106    6.6520 H   0  0  0  0  0  0  0  0  0  0  0  0
    2.9493   -8.6799    7.0663 H   0  0  0  0  0  0  0  0  0  0  0  0
    2.4986   -7.2889    6.0903 H   0  0  0  0  0  0  0  0  0  0  0  0
    0.4400   -8.2936    9.1499 H   0  0  0  0  0  0  0  0  0  0  0  0
    1.5731   -7.6343   10.3231 H   0  0  0  0  0  0  0  0  0  0  0  0
    2.0511   -8.9761    9.3225 H   0  0  0  0  0  0  0  0  0  0  0  0
    1.7008   -5.4560    7.2944 H   0  0  0  0  0  0  0  0  0  0  0  0
   -0.0686   -6.4587    6.2105 H   0  0  0  0  0  0  0  0  0  0  0  0
   -1.0582   -5.7512    7.4584 H   0  0  0  0  0  0  0  0  0  0  0  0
    0.7748   -4.3693    5.4122 H   0  0  0  0  0  0  0  0  0  0  0  0
   -0.9021   -4.1418    5.7006 H   0  0  0  0  0  0  0  0  0  0  0  0
   -0.3843   -3.8992    8.5451 H   0  0  0  0  0  0  0  0  0  0  0  0
    1.2802   -5.5651   10.1272 H   0  0  0  0  0  0  0  0  0  0  0  0
    0.0192   -4.7063    9.5527 H   0  0  0  0  0  0  0  0  0  0  0  0
    2.5547   -1.5866    9.1981 H   0  0  0  0  0  0  0  0  0  0  0  0
  1  2  2  0
  1 43  1  0
  1 44  1  0
  2  7  1  0
  2  3  1  0
  3  4  1  0
  3  5  1  0
  3  6  1  0
  4 45  1  0
  4 46  1  0
  4 47  1  0
  5 48  1  0
  5 49  1  0
  5 50  1  0
  6 22  1  0
  6  7  1  0
  6 51  1  6
  7  8  1  1
  7 13  1  0
  8  9  1  0
  8 52  1  0
  8 53  1  0
  9 10  1  0
 10 11  1  0
 10 12  2  0
 11 54  1  0
 11 55  1  0
 11 56  1  0
 13 14  1  0
 13 15  1  0
 13 57  1  6
 14 58  1  0
 15 39  1  0
 15 16  1  6
 15 17  1  0
 16 59  1  0
 17 18  1  0
 18 42  1  0
 18 19  1  0
 18 60  1  1
 19 20  1  0
 19 61  1  0
 19 62  1  0
 20 21  1  0
 22 20  1  1
 20 63  1  6
 21 64  1  0
 21 65  1  0
 21 66  1  0
 22 42  1  0
 22 23  1  0
 23 24  1  0
 23 25  1  0
 23 67  1  6
 24 68  1  0
 25 26  1  0
 25 69  1  0
 25 70  1  0
 26 27  1  0
 26 28  1  0
 26 71  1  6
 27 72  1  0
 28 39  1  6
 28 29  1  0
 28 42  1  0
 29 41  1  0
 29 30  1  0
 29 73  1  1
 30 31  1  0
 30 74  1  0
 30 75  1  0
 31 32  1  0
 31 33  1  0
 31 76  1  6
 32 77  1  0
 33 34  1  0
 33 35  1  0
 33 36  1  0
 34 78  1  0
 34 79  1  0
 34 80  1  0
 35 81  1  0
 35 82  1  0
 35 83  1  0
 36 37  1  0
 36 41  1  0
 36 84  1  6
 37 38  1  0
 37 85  1  0
 37 86  1  0
 38 39  1  0
 38 87  1  0
 38 88  1  0
 39 40  1  1
 40 89  1  0
 41 90  1  0
 41 91  1  0
 42 92  1  1
M  END
>  <i_m_ct_stereo_status>  (38) 
1

>  <s_m_source_file>  (38) 
/var/tmp/pbs.5076255.sched01/tmpuvpulguu/0mmv31ww_.sdf

>  <i_m_source_file_index>  (38) 
23

>  <i_lp_mmshare_version>  (38) 
48012

>  <i_f3d_flags>  (38) 
0

>  <s_epik_input>  (38) 
W0NIM11DKD1PKU9bQ0gyXVtDQF0oW0NAQEhdMVtDQF0yMzQpKEMoPVtDSDJdKUMxKFtDSDNdKVtDSDNdKVtDQEBIXShbT0hdKVtDQEBdNShbT0hdKVtDQF02KFtPSF0pW0NAQF0oW0NASF0oW09IXSlbQ0gyXVtDQEBIXTNbT0hdKShbQ0hdNFtDSF0oTzUpW0NIMl1bQ0BIXTJbQ0gzXSlbQ0hdN1tDSDJdW0NAQEhdKFtPSF0pQyhbQ0gzXSkoW0NIM10pW0NAQEhdKFtDSDJdNylbQ0gyXVtDSDJdNg==

>  <s_epik_cmdline>  (38) 
J2VwaWtfcHl0aG9uJywgJy1waHQnLCAnMi4wJywgJy1waCcsICc3LjAnLCAnLXRuJywgJzgnLCAnLW1hJywgJzIwMCcsICctaW1hZScsICc8aW5maWxlLm1hZT4nLCAnLW9tYWUnLCAnPG91dGZpbGUubWFlPic=

>  <r_lp_tautomer_probability>  (38) 
1

>  <r_epik_Ionization_Penalty>  (38) 
3.51432e-06

>  <r_epik_Ionization_Penalty_Charging>  (38) 
0

>  <r_epik_Ionization_Penalty_Neutral>  (38) 
3.51432e-06

>  <r_epik_State_Penalty>  (38) 
-0

>  <r_epik_Charging_Adjusted_Penalty>  (38) 
0

>  <i_epik_Tot_Q>  (38) 
0

>  <i_epik_Tot_abs_Q>  (38) 
0

>  <s_epik_Chemistry_Notes>  (38) 
This compound has an ester and may undergo hydrolysis at high or low pH.

>  <s_lp_Force_Field>  (38) 
OPLS3e

>  <r_lp_Energy>  (38) 
261.914

>  <b_lp_Chiralities_Consistent>  (38) 
1

>  <s_lp_Variant>  (38) 
10:0-8

>  <s_i_glide_gridfile>  (38) 
pfpi4k_grid

>  <i_i_glide_lignum>  (38) 
23

>  <i_i_glide_rotatable_bonds>  (38) 
9

>  <r_i_docking_score>  (38) 
-2.3659

>  <r_i_glide_ligand_efficiency>  (38) 
-0.056331

>  <r_i_glide_ligand_efficiency_sa>  (38) 
-0.195808

>  <r_i_glide_ligand_efficiency_ln>  (38) 
-0.499381

>  <r_i_glide_gscore>  (38) 
-2.3659

>  <r_i_glide_lipo>  (38) 
-0.100767

>  <r_i_glide_hbond>  (38) 
0

>  <r_i_glide_metal>  (38) 
-0

>  <r_i_glide_rewards>  (38) 
-0.5

>  <r_i_glide_evdw>  (38) 
-17.1762

>  <r_i_glide_ecoul>  (38) 
-5.77546

>  <r_i_glide_erotb>  (38) 
0.011114

>  <r_i_glide_esite>  (38) 
-0.0511155

>  <r_i_glide_emodel>  (38) 
-31.0967

>  <r_i_glide_energy>  (38) 
-22.9517

>  <r_i_glide_einternal>  (38) 
0.80768

>  <r_i_glide_intrahb_reward>  (38) 
-0.5

>  <i_i_glide_confnum>  (38) 
2

>  <i_i_glide_posenum>  (38) 
2

>  <r_i_glide_eff_state_penalty>  (38) 
0

>  <ligand_id>  (38) 
10

>  <original_smiles>  (38) 
C=C1C(C)(C)C2C1(COC(C)=O)C(O)C1(O)OC3CC(C)C24C(O)CC(O)C2(C5CC(O)C(C)(C)C(CCC12O)C5)C34

>  <smiles>  (38) 
[H]OC1([H])C2(O[H])OC3([H])C([H])([H])C([H])(C([H])([H])[H])C4(C([H])(O[H])C([H])([H])C([H])(O[H])C5(C6([H])C([H])([H])C([H])(O[H])C(C([H])([H])[H])(C([H])([H])[H])C([H])(C([H])([H])C([H])([H])C25O[H])C6([H])[H])C34[H])C2([H])C(C([H])([H])[H])(C([H])([H])[H])C(=C([H])[H])C12C([H])([H])OC(=O)C([H])([H])[H]

$$$$
10:7:2
     RDKit          3D

 92 98  0  0  1  0  0  0  0  0999 V2000
    5.7737   -2.1851    6.7145 C   0  0  0  0  0  0  0  0  0  0  0  0
    4.5170   -2.6084    6.9346 C   0  0  0  0  0  0  0  0  0  0  0  0
    3.8506   -3.2384    8.1675 C   0  0  0  0  0  0  0  0  0  0  0  0
    4.7970   -4.1465    8.9705 C   0  0  0  0  0  0  0  0  0  0  0  0
    3.2266   -2.2369    9.1561 C   0  0  0  0  0  0  0  0  0  0  0  0
    2.9873   -3.9109    7.0542 C   0  0  2  0  0  0  0  0  0  0  0  0
    3.3263   -2.8021    5.9868 C   0  0  1  0  0  0  0  0  0  0  0  0
    2.6509   -1.3759    5.9409 C   0  0  0  0  0  0  0  0  0  0  0  0
    3.1472   -0.5534    4.8831 O   0  0  0  0  0  0  0  0  0  0  0  0
    2.4446   -0.3849    3.7572 C   0  0  0  0  0  0  0  0  0  0  0  0
    3.1421    0.5991    2.8166 C   0  0  0  0  0  0  0  0  0  0  0  0
    1.3415   -0.8729    3.5311 O   0  0  0  0  0  0  0  0  0  0  0  0
    3.5570   -3.4102    4.5347 C   0  0  1  0  0  0  0  0  0  0  0  0
    4.6806   -4.2760    4.4929 O   0  0  0  0  0  0  0  0  0  0  0  0
    2.2912   -3.9844    3.7152 C   0  0  2  0  0  0  0  0  0  0  0  0
    2.5287   -3.5201    2.3995 O   0  0  0  0  0  0  0  0  0  0  0  0
    1.1018   -3.3511    4.1610 O   0  0  0  0  0  0  0  0  0  0  0  0
    0.4276   -3.9247    5.2879 C   0  0  1  0  0  0  0  0  0  0  0  0
   -0.3540   -3.2579    6.4304 C   0  0  0  0  0  0  0  0  0  0  0  0
    0.4721   -3.6376    7.7136 C   0  0  1  0  0  0  0  0  0  0  0  0
   -0.4512   -4.0300    8.8812 C   0  0  0  0  0  0  0  0  0  0  0  0
    1.5913   -4.6711    7.2547 C   0  0  2  0  0  0  0  0  0  0  0  0
    1.8516   -5.9378    8.1241 C   0  0  1  0  0  0  0  0  0  0  0  0
    0.6914   -6.6935    8.4548 O   0  0  0  0  0  0  0  0  0  0  0  0
    2.8058   -6.9190    7.3825 C   0  0  0  0  0  0  0  0  0  0  0  0
    2.8677   -6.8279    5.8199 C   0  0  1  0  0  0  0  0  0  0  0  0
    3.5904   -7.9698    5.4308 O   0  0  0  0  0  0  0  0  0  0  0  0
    1.5786   -6.3203    5.0094 C   0  0  2  0  0  0  0  0  0  0  0  0
    0.4859   -7.5401    4.8179 C   0  0  2  0  0  0  0  0  0  0  0  0
    0.6475   -8.9166    5.5799 C   0  0  0  0  0  0  0  0  0  0  0  0
    1.4345  -10.1235    4.8823 C   0  0  1  0  0  0  0  0  0  0  0  0
    0.8159  -11.3355    5.2777 O   0  0  0  0  0  0  0  0  0  0  0  0
    1.6703  -10.0724    3.3037 C   0  0  0  0  0  0  0  0  0  0  0  0
    3.0682  -10.6179    2.9559 C   0  0  0  0  0  0  0  0  0  0  0  0
    0.6342  -10.8882    2.5171 C   0  0  0  0  0  0  0  0  0  0  0  0
    1.5445   -8.5842    2.9186 C   0  0  1  0  0  0  0  0  0  0  0  0
    2.3369   -7.7036    1.9257 C   0  0  0  0  0  0  0  0  0  0  0  0
    2.9056   -6.3822    2.6064 C   0  0  0  0  0  0  0  0  0  0  0  0
    1.9508   -5.5652    3.5882 C   0  0  2  0  0  0  0  0  0  0  0  0
    0.8086   -5.5182    2.7531 O   0  0  0  0  0  0  0  0  0  0  0  0
    0.2041   -8.0449    3.3964 C   0  0  0  0  0  0  0  0  0  0  0  0
    0.9176   -5.2166    5.9389 C   0  0  2  0  0  0  0  0  0  0  0  0
    6.0552   -1.8394    5.7362 H   0  0  0  0  0  0  0  0  0  0  0  0
    6.5001   -2.1874    7.5021 H   0  0  0  0  0  0  0  0  0  0  0  0
    4.2559   -4.7223    9.7273 H   0  0  0  0  0  0  0  0  0  0  0  0
    5.5502   -3.5730    9.5093 H   0  0  0  0  0  0  0  0  0  0  0  0
    5.3314   -4.8711    8.3508 H   0  0  0  0  0  0  0  0  0  0  0  0
    2.5742   -2.7643    9.8656 H   0  0  0  0  0  0  0  0  0  0  0  0
    2.6399   -1.4549    8.6779 H   0  0  0  0  0  0  0  0  0  0  0  0
    4.0057   -1.7534    9.7515 H   0  0  0  0  0  0  0  0  0  0  0  0
    3.6690   -4.7046    6.8041 H   0  0  0  0  0  0  0  0  0  0  0  0
    1.5583   -1.4195    5.9002 H   0  0  0  0  0  0  0  0  0  0  0  0
    2.9070   -0.8352    6.8520 H   0  0  0  0  0  0  0  0  0  0  0  0
    4.2297    0.4479    2.8069 H   0  0  0  0  0  0  0  0  0  0  0  0
    2.9392    1.6365    3.1165 H   0  0  0  0  0  0  0  0  0  0  0  0
    2.7685    0.4478    1.8072 H   0  0  0  0  0  0  0  0  0  0  0  0
    3.9512   -2.6056    3.9308 H   0  0  0  0  0  0  0  0  0  0  0  0
    4.4548   -5.1077    4.8668 H   0  0  0  0  0  0  0  0  0  0  0  0
    3.3094   -3.9293    2.0973 H   0  0  0  0  0  0  0  0  0  0  0  0
    1.1235   -3.2073    5.5982 H   0  0  0  0  0  0  0  0  0  0  0  0
   -0.4428   -2.1804    6.2969 H   0  0  0  0  0  0  0  0  0  0  0  0
   -1.3755   -3.6385    6.5091 H   0  0  0  0  0  0  0  0  0  0  0  0
    0.9622   -2.7285    8.0351 H   0  0  0  0  0  0  0  0  0  0  0  0
   -1.1137   -4.8565    8.6113 H   0  0  0  0  0  0  0  0  0  0  0  0
   -1.0867   -3.1950    9.1815 H   0  0  0  0  0  0  0  0  0  0  0  0
    0.1191   -4.3228    9.7664 H   0  0  0  0  0  0  0  0  0  0  0  0
    2.2998   -5.6348    9.0705 H   0  0  0  0  0  0  0  0  0  0  0  0
    0.4023   -7.1357    7.6739 H   0  0  0  0  0  0  0  0  0  0  0  0
    3.8215   -6.7325    7.7348 H   0  0  0  0  0  0  0  0  0  0  0  0
    2.6099   -7.9373    7.7193 H   0  0  0  0  0  0  0  0  0  0  0  0
    3.6377   -6.1401    5.5454 H   0  0  0  0  0  0  0  0  0  0  0  0
    3.0304   -8.7174    5.5547 H   0  0  0  0  0  0  0  0  0  0  0  0
   -0.4899   -7.1509    5.1029 H   0  0  0  0  0  0  0  0  0  0  0  0
    1.0159   -8.7743    6.5886 H   0  0  0  0  0  0  0  0  0  0  0  0
   -0.3791   -9.2574    5.7319 H   0  0  0  0  0  0  0  0  0  0  0  0
    2.4233  -10.1630    5.3416 H   0  0  0  0  0  0  0  0  0  0  0  0
    1.0168  -11.5312    6.1972 H   0  0  0  0  0  0  0  0  0  0  0  0
    3.2383  -10.6003    1.8797 H   0  0  0  0  0  0  0  0  0  0  0  0
    3.1667  -11.6513    3.2884 H   0  0  0  0  0  0  0  0  0  0  0  0
    3.8557  -10.0326    3.4313 H   0  0  0  0  0  0  0  0  0  0  0  0
    0.6972  -10.6018    1.4826 H   0  0  0  0  0  0  0  0  0  0  0  0
   -0.3839  -10.7168    2.8557 H   0  0  0  0  0  0  0  0  0  0  0  0
    0.8141  -11.9610    2.5772 H   0  0  0  0  0  0  0  0  0  0  0  0
    2.2719   -8.3216    3.6433 H   0  0  0  0  0  0  0  0  0  0  0  0
    3.1844   -8.2522    1.5154 H   0  0  0  0  0  0  0  0  0  0  0  0
    1.7042   -7.4515    1.0707 H   0  0  0  0  0  0  0  0  0  0  0  0
    3.8298   -6.6122    3.1324 H   0  0  0  0  0  0  0  0  0  0  0  0
    3.2198   -5.7620    1.7725 H   0  0  0  0  0  0  0  0  0  0  0  0
    0.5853   -6.4200    2.5817 H   0  0  0  0  0  0  0  0  0  0  0  0
   -0.5580   -8.8119    3.4814 H   0  0  0  0  0  0  0  0  0  0  0  0
   -0.3402   -7.4345    2.6835 H   0  0  0  0  0  0  0  0  0  0  0  0
    0.0051   -5.6802    6.3308 H   0  0  0  0  0  0  0  0  0  0  0  0
  1  2  2  0
  1 43  1  0
  1 44  1  0
  2  7  1  0
  2  3  1  0
  3  4  1  0
  3  5  1  0
  3  6  1  0
  4 45  1  0
  4 46  1  0
  4 47  1  0
  5 48  1  0
  5 49  1  0
  5 50  1  0
  6 22  1  0
  6  7  1  0
  6 51  1  6
  7  8  1  6
  7 13  1  0
  8  9  1  0
  8 52  1  0
  8 53  1  0
  9 10  1  0
 10 11  1  0
 10 12  2  0
 11 54  1  0
 11 55  1  0
 11 56  1  0
 13 14  1  0
 13 15  1  0
 13 57  1  6
 14 58  1  0
 15 39  1  0
 15 16  1  6
 15 17  1  0
 16 59  1  0
 17 18  1  0
 18 42  1  0
 18 19  1  0
 18 60  1  6
 19 20  1  0
 19 61  1  0
 19 62  1  0
 20 21  1  0
 22 20  1  1
 20 63  1  1
 21 64  1  0
 21 65  1  0
 21 66  1  0
 22 42  1  0
 22 23  1  0
 23 24  1  0
 23 25  1  0
 23 67  1  1
 24 68  1  0
 25 26  1  0
 25 69  1  0
 25 70  1  0
 26 27  1  0
 26 28  1  0
 26 71  1  1
 27 72  1  0
 28 39  1  6
 28 29  1  0
 28 42  1  0
 29 41  1  0
 29 30  1  0
 29 73  1  1
 30 31  1  0
 30 74  1  0
 30 75  1  0
 31 32  1  0
 31 33  1  0
 31 76  1  1
 32 77  1  0
 33 34  1  0
 33 35  1  0
 33 36  1  0
 34 78  1  0
 34 79  1  0
 34 80  1  0
 35 81  1  0
 35 82  1  0
 35 83  1  0
 36 37  1  0
 36 41  1  0
 36 84  1  1
 37 38  1  0
 37 85  1  0
 37 86  1  0
 38 39  1  0
 38 87  1  0
 38 88  1  0
 39 40  1  6
 40 89  1  0
 41 90  1  0
 41 91  1  0
 42 92  1  1
M  END
>  <i_m_ct_stereo_status>  (39) 
1

>  <s_m_source_file>  (39) 
/var/tmp/pbs.5076255.sched01/tmpuvpulguu/0mmv31ww_.sdf

>  <i_m_source_file_index>  (39) 
23

>  <i_lp_mmshare_version>  (39) 
48012

>  <i_f3d_flags>  (39) 
0

>  <s_epik_input>  (39) 
W0NIM11DKD1PKU9bQ0gyXVtDQF0oW0NAQEhdMVtDQF0yMzQpKEMoPVtDSDJdKUMxKFtDSDNdKVtDSDNdKVtDQEBIXShbT0hdKVtDQEBdNShbT0hdKVtDQF02KFtPSF0pW0NAQF0oW0NASF0oW09IXSlbQ0gyXVtDQEBIXTNbT0hdKShbQ0hdNFtDSF0oTzUpW0NIMl1bQ0BIXTJbQ0gzXSlbQ0hdN1tDSDJdW0NAQEhdKFtPSF0pQyhbQ0gzXSkoW0NIM10pW0NAQEhdKFtDSDJdNylbQ0gyXVtDSDJdNg==

>  <s_epik_cmdline>  (39) 
J2VwaWtfcHl0aG9uJywgJy1waHQnLCAnMi4wJywgJy1waCcsICc3LjAnLCAnLXRuJywgJzgnLCAnLW1hJywgJzIwMCcsICctaW1hZScsICc8aW5maWxlLm1hZT4nLCAnLW9tYWUnLCAnPG91dGZpbGUubWFlPic=

>  <r_lp_tautomer_probability>  (39) 
1

>  <r_epik_Ionization_Penalty>  (39) 
3.51432e-06

>  <r_epik_Ionization_Penalty_Charging>  (39) 
0

>  <r_epik_Ionization_Penalty_Neutral>  (39) 
3.51432e-06

>  <r_epik_State_Penalty>  (39) 
-0

>  <r_epik_Charging_Adjusted_Penalty>  (39) 
0

>  <i_epik_Tot_Q>  (39) 
0

>  <i_epik_Tot_abs_Q>  (39) 
0

>  <s_epik_Chemistry_Notes>  (39) 
This compound has an ester and may undergo hydrolysis at high or low pH.

>  <s_lp_Force_Field>  (39) 
OPLS3e

>  <r_lp_Energy>  (39) 
261.914

>  <b_lp_Chiralities_Consistent>  (39) 
1

>  <s_lp_Variant>  (39) 
10:0-8

>  <s_i_glide_gridfile>  (39) 
pfpi4k_grid

>  <i_i_glide_lignum>  (39) 
23

>  <i_i_glide_rotatable_bonds>  (39) 
9

>  <r_i_docking_score>  (39) 
-1.35853

>  <r_i_glide_ligand_efficiency>  (39) 
-0.0323459

>  <r_i_glide_ligand_efficiency_sa>  (39) 
-0.112435

>  <r_i_glide_ligand_efficiency_ln>  (39) 
-0.28675

>  <r_i_glide_gscore>  (39) 
-1.35853

>  <r_i_glide_lipo>  (39) 
-0.22845

>  <r_i_glide_hbond>  (39) 
-0.16

>  <r_i_glide_metal>  (39) 
-0

>  <r_i_glide_rewards>  (39) 
-0.0011617

>  <r_i_glide_evdw>  (39) 
-15.7435

>  <r_i_glide_ecoul>  (39) 
-1.28225

>  <r_i_glide_erotb>  (39) 
0.011114

>  <r_i_glide_esite>  (39) 
-0.000515981

>  <r_i_glide_emodel>  (39) 
-16.7809

>  <r_i_glide_energy>  (39) 
-17.0258

>  <r_i_glide_einternal>  (39) 
3.15181

>  <r_i_glide_intrahb_reward>  (39) 
-0

>  <i_i_glide_confnum>  (39) 
2

>  <i_i_glide_posenum>  (39) 
3

>  <r_i_glide_eff_state_penalty>  (39) 
0

>  <ligand_id>  (39) 
10

>  <original_smiles>  (39) 
C=C1C(C)(C)C2C1(COC(C)=O)C(O)C1(O)OC3CC(C)C24C(O)CC(O)C2(C5CC(O)C(C)(C)C(CCC12O)C5)C34

>  <smiles>  (39) 
[H]OC1([H])C2(O[H])OC3([H])C([H])([H])C([H])(C([H])([H])[H])C4(C([H])(O[H])C([H])([H])C([H])(O[H])C5(C6([H])C([H])([H])C([H])(O[H])C(C([H])([H])[H])(C([H])([H])[H])C([H])(C([H])([H])C([H])([H])C25O[H])C6([H])[H])C34[H])C2([H])C(C([H])([H])[H])(C([H])([H])[H])C(=C([H])[H])C12C([H])([H])OC(=O)C([H])([H])[H]

$$$$
11:0:0
     RDKit          3D

 51 54  0  0  1  0  0  0  0  0999 V2000
    0.4074   -2.4036    4.1791 C   0  0  0  0  0  0  0  0  0  0  0  0
    1.3947   -3.2252    4.7760 O   0  0  0  0  0  0  0  0  0  0  0  0
    1.7610   -4.3694    4.1782 C   0  0  0  0  0  0  0  0  0  0  0  0
    1.2360   -4.8193    3.1569 O   0  0  0  0  0  0  0  0  0  0  0  0
    2.9304   -5.0964    4.9066 C   0  0  1  0  0  0  0  0  0  0  0  0
    2.6670   -5.1054    6.2988 O   0  0  0  0  0  0  0  0  0  0  0  0
    3.0574   -6.5599    4.3901 C   0  0  0  0  0  0  0  0  0  0  0  0
    4.0241   -6.4098    3.2454 C   0  0  0  0  0  0  0  0  0  0  0  0
    4.7229   -5.2736    3.3287 C   0  0  0  0  0  0  0  0  0  0  0  0
    5.7490   -4.6990    2.3578 C   0  0  1  0  0  0  0  0  0  0  0  0
    6.0837   -5.6109    1.1675 C   0  0  0  0  0  0  0  0  0  0  0  0
    5.0054   -5.4899    0.0976 C   0  0  0  0  0  0  0  0  0  0  0  0
    4.9729   -4.0739   -0.4275 C   0  0  0  0  0  0  0  0  0  0  0  0
    5.2055   -2.9650    0.4384 C   0  0  0  0  0  0  0  0  0  0  0  0
    5.2496   -1.6558   -0.1323 C   0  0  0  0  0  0  0  0  0  0  0  0
    5.5830   -0.4283    0.7053 C   0  0  0  0  0  0  0  0  0  0  0  0
    4.9853   -1.4837   -1.5146 C   0  0  0  0  0  0  0  0  0  0  0  0
    4.9579   -0.2618   -2.1152 O   0  0  0  0  0  0  0  0  0  0  0  0
    4.7518   -2.5846   -2.3462 C   0  0  0  0  0  0  0  0  0  0  0  0
    4.7747   -3.8711   -1.8056 C   0  0  0  0  0  0  0  0  0  0  0  0
    5.4439   -3.2178    1.9463 C   0  0  1  0  0  0  0  0  0  0  0  0
    4.3320   -2.5833    2.8259 C   0  0  0  0  0  0  0  0  0  0  0  0
    4.4567   -2.9685    4.3154 C   0  0  0  0  0  0  0  0  0  0  0  0
    4.3578   -4.4955    4.5776 C   0  0  1  0  0  0  0  0  0  0  0  0
    5.3938   -4.8544    5.6747 C   0  0  0  0  0  0  0  0  0  0  0  0
    0.2629   -1.5038    4.7792 H   0  0  0  0  0  0  0  0  0  0  0  0
   -0.5465   -2.9315    4.1275 H   0  0  0  0  0  0  0  0  0  0  0  0
    0.6939   -2.0917    3.1700 H   0  0  0  0  0  0  0  0  0  0  0  0
    1.8972   -5.6361    6.4417 H   0  0  0  0  0  0  0  0  0  0  0  0
    3.4923   -7.2280    5.1398 H   0  0  0  0  0  0  0  0  0  0  0  0
    2.1132   -7.0008    4.0616 H   0  0  0  0  0  0  0  0  0  0  0  0
    4.1108   -7.1559    2.4708 H   0  0  0  0  0  0  0  0  0  0  0  0
    6.6434   -4.6774    2.9642 H   0  0  0  0  0  0  0  0  0  0  0  0
    7.0443   -5.3003    0.7488 H   0  0  0  0  0  0  0  0  0  0  0  0
    6.2326   -6.6410    1.4823 H   0  0  0  0  0  0  0  0  0  0  0  0
    5.2018   -6.1833   -0.7168 H   0  0  0  0  0  0  0  0  0  0  0  0
    4.0283   -5.7479    0.5001 H   0  0  0  0  0  0  0  0  0  0  0  0
    5.0036    0.4772   -1.5161 H   0  0  0  0  0  0  0  0  0  0  0  0
    6.1651    0.2672    0.1149 H   0  0  0  0  0  0  0  0  0  0  0  0
    6.1979   -0.6445    1.5725 H   0  0  0  0  0  0  0  0  0  0  0  0
    4.6673    0.0570    1.0330 H   0  0  0  0  0  0  0  0  0  0  0  0
    4.5690   -2.4483   -3.4043 H   0  0  0  0  0  0  0  0  0  0  0  0
    4.6397   -4.7110   -2.4672 H   0  0  0  0  0  0  0  0  0  0  0  0
    6.3705   -2.6925    2.1788 H   0  0  0  0  0  0  0  0  0  0  0  0
    4.3606   -1.4993    2.7518 H   0  0  0  0  0  0  0  0  0  0  0  0
    3.3534   -2.8698    2.4388 H   0  0  0  0  0  0  0  0  0  0  0  0
    5.4293   -2.6061    4.6510 H   0  0  0  0  0  0  0  0  0  0  0  0
    3.7464   -2.4177    4.9304 H   0  0  0  0  0  0  0  0  0  0  0  0
    5.1860   -4.3255    6.6079 H   0  0  0  0  0  0  0  0  0  0  0  0
    6.4107   -4.5897    5.3713 H   0  0  0  0  0  0  0  0  0  0  0  0
    5.4029   -5.9236    5.8966 H   0  0  0  0  0  0  0  0  0  0  0  0
  1  2  1  0
  1 26  1  0
  1 27  1  0
  1 28  1  0
  2  3  1  0
  3  4  2  0
  3  5  1  0
  5 24  1  0
  5  6  1  1
  5  7  1  0
  6 29  1  0
  7  8  1  0
  7 30  1  0
  7 31  1  0
  8  9  2  0
  8 32  1  0
  9 24  1  0
  9 10  1  0
 10 21  1  0
 10 11  1  0
 10 33  1  1
 11 12  1  0
 11 34  1  0
 11 35  1  0
 12 36  1  0
 12 37  1  0
 12 13  1  0
 13 14  2  0
 13 20  1  0
 14 15  1  0
 14 21  1  0
 15 17  2  0
 15 16  1  0
 16 39  1  0
 16 40  1  0
 16 41  1  0
 17 19  1  0
 17 18  1  0
 18 38  1  0
 19 42  1  0
 19 20  2  0
 20 43  1  0
 21 22  1  0
 21 44  1  1
 22 23  1  0
 22 45  1  0
 22 46  1  0
 23 24  1  0
 23 47  1  0
 23 48  1  0
 24 25  1  1
 25 49  1  0
 25 50  1  0
 25 51  1  0
M  END
>  <i_m_ct_stereo_status>  (40) 
1

>  <s_m_source_file>  (40) 
/var/tmp/pbs.5076255.sched01/tmpuvpulguu/0mmv31ww_.sdf

>  <i_m_source_file_index>  (40) 
24

>  <i_lp_mmshare_version>  (40) 
48012

>  <i_f3d_flags>  (40) 
0

>  <s_epik_input>  (40) 
W0NIM11PQyg9TylbQ0BAXTEoW09IXSlbQ0gyXVtDSF09QyhbQ0BdMTJbQ0gzXSlbQ0BASF0zW0NASF0oW0NIMl1bQ0gyXTIpQzQ9QyhbQ0gyXVtDSDJdMylbQ0hdPVtDSF1DKD1PKVtDQEBIXTRbQ0gzXQ==

>  <s_epik_cmdline>  (40) 
J2VwaWtfcHl0aG9uJywgJy1waHQnLCAnMi4wJywgJy1waCcsICc3LjAnLCAnLXRuJywgJzgnLCAnLW1hJywgJzIwMCcsICctaW1hZScsICc8aW5maWxlLm1hZT4nLCAnLW9tYWUnLCAnPG91dGZpbGUubWFlPic=

>  <r_lp_tautomer_probability>  (40) 
1

>  <r_epik_Ionization_Penalty>  (40) 
8.84337e-05

>  <r_epik_Ionization_Penalty_Charging>  (40) 
0

>  <r_epik_Ionization_Penalty_Neutral>  (40) 
8.84337e-05

>  <r_epik_State_Penalty>  (40) 
-0

>  <r_epik_Charging_Adjusted_Penalty>  (40) 
0

>  <i_epik_Tot_Q>  (40) 
0

>  <i_epik_Tot_abs_Q>  (40) 
0

>  <s_epik_Chemistry_Notes>  (40) 
This compound has an ester and may undergo hydrolysis at high or low pH.

>  <s_lp_Force_Field>  (40) 
OPLS3e

>  <r_lp_Energy>  (40) 
38.5434

>  <b_lp_Chiralities_Consistent>  (40) 
1

>  <s_lp_Variant>  (40) 
11:0-1

>  <s_i_glide_gridfile>  (40) 
pfpi4k_grid

>  <i_i_glide_lignum>  (40) 
24

>  <i_i_glide_rotatable_bonds>  (40) 
4

>  <r_i_docking_score>  (40) 
-3.42369

>  <r_i_glide_ligand_efficiency>  (40) 
-0.136948

>  <r_i_glide_ligand_efficiency_sa>  (40) 
-0.400437

>  <r_i_glide_ligand_efficiency_ln>  (40) 
-0.811518

>  <r_i_glide_gscore>  (40) 
-3.42369

>  <r_i_glide_lipo>  (40) 
-0.592586

>  <r_i_glide_hbond>  (40) 
-0.32

>  <r_i_glide_metal>  (40) 
-0

>  <r_i_glide_rewards>  (40) 
-1.07435

>  <r_i_glide_evdw>  (40) 
-15.6466

>  <r_i_glide_ecoul>  (40) 
-5.43716

>  <r_i_glide_erotb>  (40) 
0.161716

>  <r_i_glide_esite>  (40) 
-0.000565863

>  <r_i_glide_emodel>  (40) 
-25.8521

>  <r_i_glide_energy>  (40) 
-21.0838

>  <r_i_glide_einternal>  (40) 
3.8419

>  <r_i_glide_intrahb_reward>  (40) 
-0

>  <i_i_glide_confnum>  (40) 
2

>  <i_i_glide_posenum>  (40) 
10

>  <r_i_glide_eff_state_penalty>  (40) 
0

>  <ligand_id>  (40) 
11

>  <original_smiles>  (40) 
COC(=O)C1(O)CC=C2C3CCC4=C(C(C)C(=O)C=C4)C3CCC21C

>  <smiles>  (40) 
[H]Oc1c([H])c([H])c2c(c1C([H])([H])[H])C1([H])C([H])([H])C([H])([H])C3(C([H])([H])[H])C(=C([H])C([H])([H])C3(O[H])C(=O)OC([H])([H])[H])C1([H])C([H])([H])C2([H])[H]

$$$$
11:0:1
     RDKit          3D

 51 54  0  0  1  0  0  0  0  0999 V2000
    2.4061   -3.0717   -3.6605 C   0  0  0  0  0  0  0  0  0  0  0  0
    3.4382   -2.4864   -2.8776 O   0  0  0  0  0  0  0  0  0  0  0  0
    3.4129   -2.6263   -1.5339 C   0  0  0  0  0  0  0  0  0  0  0  0
    2.5430   -3.2500   -0.9229 O   0  0  0  0  0  0  0  0  0  0  0  0
    4.5801   -1.9061   -0.7884 C   0  0  1  0  0  0  0  0  0  0  0  0
    5.2884   -1.0820   -1.6995 O   0  0  0  0  0  0  0  0  0  0  0  0
    3.9808   -1.0128    0.3283 C   0  0  0  0  0  0  0  0  0  0  0  0
    3.9804   -1.9294    1.5254 C   0  0  0  0  0  0  0  0  0  0  0  0
    4.8044   -2.9721    1.3541 C   0  0  0  0  0  0  0  0  0  0  0  0
    5.0709   -4.1690    2.2705 C   0  0  1  0  0  0  0  0  0  0  0  0
    4.3265   -4.1023    3.6118 C   0  0  0  0  0  0  0  0  0  0  0  0
    2.8706   -4.5257    3.4369 C   0  0  0  0  0  0  0  0  0  0  0  0
    2.8095   -5.9637    2.9675 C   0  0  0  0  0  0  0  0  0  0  0  0
    3.7999   -6.4799    2.0873 C   0  0  0  0  0  0  0  0  0  0  0  0
    3.7596   -7.8716    1.7595 C   0  0  0  0  0  0  0  0  0  0  0  0
    4.8124   -8.5359    0.8775 C   0  0  0  0  0  0  0  0  0  0  0  0
    2.7198   -8.6843    2.2733 C   0  0  0  0  0  0  0  0  0  0  0  0
    2.6368  -10.0174    1.9852 O   0  0  0  0  0  0  0  0  0  0  0  0
    1.7406   -8.1434    3.1206 C   0  0  0  0  0  0  0  0  0  0  0  0
    1.7901   -6.7881    3.4776 C   0  0  0  0  0  0  0  0  0  0  0  0
    4.9055   -5.5466    1.5318 C   0  0  1  0  0  0  0  0  0  0  0  0
    4.8077   -5.3951   -0.0124 C   0  0  0  0  0  0  0  0  0  0  0  0
    5.7475   -4.2995   -0.5704 C   0  0  0  0  0  0  0  0  0  0  0  0
    5.5246   -2.8812    0.0216 C   0  0  1  0  0  0  0  0  0  0  0  0
    6.9116   -2.2296    0.2734 C   0  0  0  0  0  0  0  0  0  0  0  0
    2.5656   -2.8216   -4.7086 H   0  0  0  0  0  0  0  0  0  0  0  0
    1.4200   -2.7074   -3.3676 H   0  0  0  0  0  0  0  0  0  0  0  0
    2.4098   -4.1583   -3.5753 H   0  0  0  0  0  0  0  0  0  0  0  0
    4.6572   -0.4858   -2.0790 H   0  0  0  0  0  0  0  0  0  0  0  0
    4.6091   -0.1426    0.5339 H   0  0  0  0  0  0  0  0  0  0  0  0
    2.9751   -0.6598    0.0926 H   0  0  0  0  0  0  0  0  0  0  0  0
    3.3679   -1.7274    2.3883 H   0  0  0  0  0  0  0  0  0  0  0  0
    6.1302   -4.0655    2.5075 H   0  0  0  0  0  0  0  0  0  0  0  0
    4.8067   -4.7865    4.3118 H   0  0  0  0  0  0  0  0  0  0  0  0
    4.3995   -3.1133    4.0652 H   0  0  0  0  0  0  0  0  0  0  0  0
    2.3377   -4.4191    4.3835 H   0  0  0  0  0  0  0  0  0  0  0  0
    2.3566   -3.8980    2.7080 H   0  0  0  0  0  0  0  0  0  0  0  0
    3.3258  -10.3779    1.4372 H   0  0  0  0  0  0  0  0  0  0  0  0
    4.9942   -9.5671    1.1767 H   0  0  0  0  0  0  0  0  0  0  0  0
    5.7808   -8.0460    0.9158 H   0  0  0  0  0  0  0  0  0  0  0  0
    4.4755   -8.5531   -0.1571 H   0  0  0  0  0  0  0  0  0  0  0  0
    0.9664   -8.7824    3.5214 H   0  0  0  0  0  0  0  0  0  0  0  0
    1.0585   -6.3953    4.1696 H   0  0  0  0  0  0  0  0  0  0  0  0
    5.8460   -6.0541    1.7444 H   0  0  0  0  0  0  0  0  0  0  0  0
    5.0543   -6.3305   -0.5069 H   0  0  0  0  0  0  0  0  0  0  0  0
    3.7741   -5.2056   -0.2877 H   0  0  0  0  0  0  0  0  0  0  0  0
    6.7630   -4.6190   -0.3246 H   0  0  0  0  0  0  0  0  0  0  0  0
    5.7095   -4.2558   -1.6595 H   0  0  0  0  0  0  0  0  0  0  0  0
    7.4838   -2.1462   -0.6515 H   0  0  0  0  0  0  0  0  0  0  0  0
    7.5078   -2.8227    0.9680 H   0  0  0  0  0  0  0  0  0  0  0  0
    6.8199   -1.2305    0.7049 H   0  0  0  0  0  0  0  0  0  0  0  0
  1  2  1  0
  1 26  1  0
  1 27  1  0
  1 28  1  0
  2  3  1  0
  3  4  2  0
  3  5  1  0
  5 24  1  0
  5  6  1  6
  5  7  1  0
  6 29  1  0
  7  8  1  0
  7 30  1  0
  7 31  1  0
  8  9  2  0
  8 32  1  0
  9 24  1  0
  9 10  1  0
 10 21  1  0
 10 11  1  0
 10 33  1  1
 11 12  1  0
 11 34  1  0
 11 35  1  0
 12 36  1  0
 12 37  1  0
 12 13  1  0
 13 14  2  0
 13 20  1  0
 14 15  1  0
 14 21  1  0
 15 17  2  0
 15 16  1  0
 16 39  1  0
 16 40  1  0
 16 41  1  0
 17 19  1  0
 17 18  1  0
 18 38  1  0
 19 42  1  0
 19 20  2  0
 20 43  1  0
 21 22  1  0
 21 44  1  6
 22 23  1  0
 22 45  1  0
 22 46  1  0
 23 24  1  0
 23 47  1  0
 23 48  1  0
 24 25  1  1
 25 49  1  0
 25 50  1  0
 25 51  1  0
M  END
>  <i_m_ct_stereo_status>  (41) 
1

>  <s_m_source_file>  (41) 
/var/tmp/pbs.5076255.sched01/tmpuvpulguu/0mmv31ww_.sdf

>  <i_m_source_file_index>  (41) 
24

>  <i_lp_mmshare_version>  (41) 
48012

>  <i_f3d_flags>  (41) 
0

>  <s_epik_input>  (41) 
W0NIM11PQyg9TylbQ0BAXTEoW09IXSlbQ0gyXVtDSF09QyhbQ0BdMTJbQ0gzXSlbQ0BASF0zW0NASF0oW0NIMl1bQ0gyXTIpQzQ9QyhbQ0gyXVtDSDJdMylbQ0hdPVtDSF1DKD1PKVtDQEBIXTRbQ0gzXQ==

>  <s_epik_cmdline>  (41) 
J2VwaWtfcHl0aG9uJywgJy1waHQnLCAnMi4wJywgJy1waCcsICc3LjAnLCAnLXRuJywgJzgnLCAnLW1hJywgJzIwMCcsICctaW1hZScsICc8aW5maWxlLm1hZT4nLCAnLW9tYWUnLCAnPG91dGZpbGUubWFlPic=

>  <r_lp_tautomer_probability>  (41) 
1

>  <r_epik_Ionization_Penalty>  (41) 
8.84337e-05

>  <r_epik_Ionization_Penalty_Charging>  (41) 
0

>  <r_epik_Ionization_Penalty_Neutral>  (41) 
8.84337e-05

>  <r_epik_State_Penalty>  (41) 
-0

>  <r_epik_Charging_Adjusted_Penalty>  (41) 
0

>  <i_epik_Tot_Q>  (41) 
0

>  <i_epik_Tot_abs_Q>  (41) 
0

>  <s_epik_Chemistry_Notes>  (41) 
This compound has an ester and may undergo hydrolysis at high or low pH.

>  <s_lp_Force_Field>  (41) 
OPLS3e

>  <r_lp_Energy>  (41) 
38.5434

>  <b_lp_Chiralities_Consistent>  (41) 
1

>  <s_lp_Variant>  (41) 
11:0-1

>  <s_i_glide_gridfile>  (41) 
pfpi4k_grid

>  <i_i_glide_lignum>  (41) 
24

>  <i_i_glide_rotatable_bonds>  (41) 
4

>  <r_i_docking_score>  (41) 
-3.23991

>  <r_i_glide_ligand_efficiency>  (41) 
-0.129596

>  <r_i_glide_ligand_efficiency_sa>  (41) 
-0.378942

>  <r_i_glide_ligand_efficiency_ln>  (41) 
-0.767956

>  <r_i_glide_gscore>  (41) 
-3.23991

>  <r_i_glide_lipo>  (41) 
-0.479914

>  <r_i_glide_hbond>  (41) 
-0.089358

>  <r_i_glide_metal>  (41) 
-0

>  <r_i_glide_rewards>  (41) 
-1.07435

>  <r_i_glide_evdw>  (41) 
-26.0368

>  <r_i_glide_ecoul>  (41) 
-2.80975

>  <r_i_glide_erotb>  (41) 
0.161716

>  <r_i_glide_esite>  (41) 
-0.0346994

>  <r_i_glide_emodel>  (41) 
-32.5404

>  <r_i_glide_energy>  (41) 
-28.8466

>  <r_i_glide_einternal>  (41) 
4.98118

>  <r_i_glide_intrahb_reward>  (41) 
-0

>  <i_i_glide_confnum>  (41) 
1

>  <i_i_glide_posenum>  (41) 
39

>  <r_i_glide_eff_state_penalty>  (41) 
0

>  <ligand_id>  (41) 
11

>  <original_smiles>  (41) 
COC(=O)C1(O)CC=C2C3CCC4=C(C(C)C(=O)C=C4)C3CCC21C

>  <smiles>  (41) 
[H]Oc1c([H])c([H])c2c(c1C([H])([H])[H])C1([H])C([H])([H])C([H])([H])C3(C([H])([H])[H])C(=C([H])C([H])([H])C3(O[H])C(=O)OC([H])([H])[H])C1([H])C([H])([H])C2([H])[H]

$$$$
11:0:2
     RDKit          3D

 51 54  0  0  1  0  0  0  0  0999 V2000
   -0.4841    0.8494    5.1304 C   0  0  0  0  0  0  0  0  0  0  0  0
   -0.0280   -0.1724    6.0065 O   0  0  0  0  0  0  0  0  0  0  0  0
   -0.1140   -1.4611    5.6239 C   0  0  0  0  0  0  0  0  0  0  0  0
   -0.6086   -1.8384    4.5600 O   0  0  0  0  0  0  0  0  0  0  0  0
    0.4907   -2.4531    6.6612 C   0  0  1  0  0  0  0  0  0  0  0  0
    0.1825   -1.9921    7.9662 O   0  0  0  0  0  0  0  0  0  0  0  0
   -0.1096   -3.8720    6.4480 C   0  0  0  0  0  0  0  0  0  0  0  0
    0.8567   -4.4859    5.4620 C   0  0  0  0  0  0  0  0  0  0  0  0
    2.0291   -3.8374    5.4474 C   0  0  0  0  0  0  0  0  0  0  0  0
    3.2666   -4.0803    4.5790 C   0  0  1  0  0  0  0  0  0  0  0  0
    3.1505   -5.2965    3.6502 C   0  0  0  0  0  0  0  0  0  0  0  0
    2.3298   -4.9480    2.4133 C   0  0  0  0  0  0  0  0  0  0  0  0
    3.0242   -3.8606    1.6268 C   0  0  0  0  0  0  0  0  0  0  0  0
    3.7458   -2.8339    2.2957 C   0  0  0  0  0  0  0  0  0  0  0  0
    4.4727   -1.8917    1.5057 C   0  0  0  0  0  0  0  0  0  0  0  0
    5.3303   -0.7903    2.1263 C   0  0  0  0  0  0  0  0  0  0  0  0
    4.4096   -1.9635    0.0908 C   0  0  0  0  0  0  0  0  0  0  0  0
    5.0714   -1.0606   -0.6908 O   0  0  0  0  0  0  0  0  0  0  0  0
    3.6645   -2.9716   -0.5461 C   0  0  0  0  0  0  0  0  0  0  0  0
    2.9889   -3.9274    0.2216 C   0  0  0  0  0  0  0  0  0  0  0  0
    3.7520   -2.7802    3.8451 C   0  0  1  0  0  0  0  0  0  0  0  0
    3.0569   -1.4988    4.3882 C   0  0  0  0  0  0  0  0  0  0  0  0
    2.8881   -1.5148    5.9237 C   0  0  0  0  0  0  0  0  0  0  0  0
    2.0387   -2.7031    6.4554 C   0  0  1  0  0  0  0  0  0  0  0  0
    2.6985   -3.2298    7.7574 C   0  0  0  0  0  0  0  0  0  0  0  0
   -0.3426    1.8236    5.6006 H   0  0  0  0  0  0  0  0  0  0  0  0
   -1.5462    0.7294    4.9086 H   0  0  0  0  0  0  0  0  0  0  0  0
    0.0726    0.8437    4.1907 H   0  0  0  0  0  0  0  0  0  0  0  0
    0.7205   -1.2307    8.1309 H   0  0  0  0  0  0  0  0  0  0  0  0
   -0.1072   -4.4604    7.3678 H   0  0  0  0  0  0  0  0  0  0  0  0
   -1.1369   -3.8538    6.0787 H   0  0  0  0  0  0  0  0  0  0  0  0
    0.5975   -5.3472    4.8670 H   0  0  0  0  0  0  0  0  0  0  0  0
    4.0347   -4.3342    5.3103 H   0  0  0  0  0  0  0  0  0  0  0  0
    4.1523   -5.5921    3.3371 H   0  0  0  0  0  0  0  0  0  0  0  0
    2.7384   -6.1612    4.1711 H   0  0  0  0  0  0  0  0  0  0  0  0
    2.2065   -5.8356    1.7921 H   0  0  0  0  0  0  0  0  0  0  0  0
    1.3328   -4.6031    2.6868 H   0  0  0  0  0  0  0  0  0  0  0  0
    4.7238   -1.0442   -1.5703 H   0  0  0  0  0  0  0  0  0  0  0  0
    6.1965   -0.5649    1.5054 H   0  0  0  0  0  0  0  0  0  0  0  0
    5.7264   -1.0471    3.1051 H   0  0  0  0  0  0  0  0  0  0  0  0
    4.7519    0.1274    2.2213 H   0  0  0  0  0  0  0  0  0  0  0  0
    3.6298   -3.0311   -1.6255 H   0  0  0  0  0  0  0  0  0  0  0  0
    2.4597   -4.7234   -0.2814 H   0  0  0  0  0  0  0  0  0  0  0  0
    4.8025   -2.7155    4.1266 H   0  0  0  0  0  0  0  0  0  0  0  0
    3.6322   -0.6153    4.1247 H   0  0  0  0  0  0  0  0  0  0  0  0
    2.0891   -1.3749    3.9048 H   0  0  0  0  0  0  0  0  0  0  0  0
    3.8915   -1.5795    6.3488 H   0  0  0  0  0  0  0  0  0  0  0  0
    2.4982   -0.5650    6.2889 H   0  0  0  0  0  0  0  0  0  0  0  0
    2.7382   -2.4574    8.5268 H   0  0  0  0  0  0  0  0  0  0  0  0
    3.7220   -3.5624    7.5760 H   0  0  0  0  0  0  0  0  0  0  0  0
    2.1567   -4.0831    8.1689 H   0  0  0  0  0  0  0  0  0  0  0  0
  1  2  1  0
  1 26  1  0
  1 27  1  0
  1 28  1  0
  2  3  1  0
  3  4  2  0
  3  5  1  0
  5 24  1  0
  5  6  1  1
  5  7  1  0
  6 29  1  0
  7  8  1  0
  7 30  1  0
  7 31  1  0
  8  9  2  0
  8 32  1  0
  9 24  1  0
  9 10  1  0
 10 21  1  0
 10 11  1  0
 10 33  1  1
 11 12  1  0
 11 34  1  0
 11 35  1  0
 12 36  1  0
 12 37  1  0
 12 13  1  0
 13 14  2  0
 13 20  1  0
 14 15  1  0
 14 21  1  0
 15 17  2  0
 15 16  1  0
 16 39  1  0
 16 40  1  0
 16 41  1  0
 17 19  1  0
 17 18  1  0
 18 38  1  0
 19 42  1  0
 19 20  2  0
 20 43  1  0
 21 22  1  0
 21 44  1  1
 22 23  1  0
 22 45  1  0
 22 46  1  0
 23 24  1  0
 23 47  1  0
 23 48  1  0
 24 25  1  1
 25 49  1  0
 25 50  1  0
 25 51  1  0
M  END
>  <i_m_ct_stereo_status>  (42) 
1

>  <s_m_source_file>  (42) 
/var/tmp/pbs.5076255.sched01/tmpuvpulguu/0mmv31ww_.sdf

>  <i_m_source_file_index>  (42) 
24

>  <i_lp_mmshare_version>  (42) 
48012

>  <i_f3d_flags>  (42) 
0

>  <s_epik_input>  (42) 
W0NIM11PQyg9TylbQ0BAXTEoW09IXSlbQ0gyXVtDSF09QyhbQ0BdMTJbQ0gzXSlbQ0BASF0zW0NASF0oW0NIMl1bQ0gyXTIpQzQ9QyhbQ0gyXVtDSDJdMylbQ0hdPVtDSF1DKD1PKVtDQEBIXTRbQ0gzXQ==

>  <s_epik_cmdline>  (42) 
J2VwaWtfcHl0aG9uJywgJy1waHQnLCAnMi4wJywgJy1waCcsICc3LjAnLCAnLXRuJywgJzgnLCAnLW1hJywgJzIwMCcsICctaW1hZScsICc8aW5maWxlLm1hZT4nLCAnLW9tYWUnLCAnPG91dGZpbGUubWFlPic=

>  <r_lp_tautomer_probability>  (42) 
1

>  <r_epik_Ionization_Penalty>  (42) 
8.84337e-05

>  <r_epik_Ionization_Penalty_Charging>  (42) 
0

>  <r_epik_Ionization_Penalty_Neutral>  (42) 
8.84337e-05

>  <r_epik_State_Penalty>  (42) 
-0

>  <r_epik_Charging_Adjusted_Penalty>  (42) 
0

>  <i_epik_Tot_Q>  (42) 
0

>  <i_epik_Tot_abs_Q>  (42) 
0

>  <s_epik_Chemistry_Notes>  (42) 
This compound has an ester and may undergo hydrolysis at high or low pH.

>  <s_lp_Force_Field>  (42) 
OPLS3e

>  <r_lp_Energy>  (42) 
38.5434

>  <b_lp_Chiralities_Consistent>  (42) 
1

>  <s_lp_Variant>  (42) 
11:0-1

>  <s_i_glide_gridfile>  (42) 
pfpi4k_grid

>  <i_i_glide_lignum>  (42) 
24

>  <i_i_glide_rotatable_bonds>  (42) 
4

>  <r_i_docking_score>  (42) 
-1.97155

>  <r_i_glide_ligand_efficiency>  (42) 
-0.0788619

>  <r_i_glide_ligand_efficiency_sa>  (42) 
-0.230593

>  <r_i_glide_ligand_efficiency_ln>  (42) 
-0.467316

>  <r_i_glide_gscore>  (42) 
-1.97155

>  <r_i_glide_lipo>  (42) 
-0.131796

>  <r_i_glide_hbond>  (42) 
0

>  <r_i_glide_metal>  (42) 
-0

>  <r_i_glide_rewards>  (42) 
-1.07435

>  <r_i_glide_evdw>  (42) 
-17.2209

>  <r_i_glide_ecoul>  (42) 
-0.288848

>  <r_i_glide_erotb>  (42) 
0.161716

>  <r_i_glide_esite>  (42) 
-0.0227428

>  <r_i_glide_emodel>  (42) 
-19.2701

>  <r_i_glide_energy>  (42) 
-17.5098

>  <r_i_glide_einternal>  (42) 
4.01853

>  <r_i_glide_intrahb_reward>  (42) 
-0

>  <i_i_glide_confnum>  (42) 
2

>  <i_i_glide_posenum>  (42) 
4

>  <r_i_glide_eff_state_penalty>  (42) 
0

>  <ligand_id>  (42) 
11

>  <original_smiles>  (42) 
COC(=O)C1(O)CC=C2C3CCC4=C(C(C)C(=O)C=C4)C3CCC21C

>  <smiles>  (42) 
[H]Oc1c([H])c([H])c2c(c1C([H])([H])[H])C1([H])C([H])([H])C([H])([H])C3(C([H])([H])[H])C(=C([H])C([H])([H])C3(O[H])C(=O)OC([H])([H])[H])C1([H])C([H])([H])C2([H])[H]

$$$$
12:0:0
     RDKit          3D

 51 56  0  0  1  0  0  0  0  0999 V2000
    7.4431   -6.0602    3.3184 C   0  0  0  0  0  0  0  0  0  0  0  0
    6.2884   -5.3873    2.5927 C   0  0  0  0  0  0  0  0  0  0  0  0
    5.1462   -4.9592    3.2136 C   0  0  0  0  0  0  0  0  0  0  0  0
    4.0405   -4.4230    2.4586 C   0  0  0  0  0  0  0  0  0  0  0  0
    3.3750   -3.2899    2.6980 C   0  0  0  0  0  0  0  0  0  0  0  0
    3.9771   -2.1224    3.4566 C   0  0  0  0  0  0  0  0  0  0  0  0
    5.4062   -1.8532    2.8990 C   0  0  0  0  0  0  0  0  0  0  0  0
    5.5246   -1.7614    1.3699 C   0  0  1  0  0  0  0  0  0  0  0  0
    5.1898   -0.3687    0.8861 C   0  0  0  0  0  0  0  0  0  0  0  0
    6.7367   -2.3271    0.8689 O   0  0  0  0  0  0  0  0  0  0  0  0
    5.5501   -2.8850    0.2901 C   0  0  1  0  0  0  0  0  0  0  0  0
    5.3146   -4.4148    0.3940 C   0  0  1  0  0  0  0  0  0  0  0  0
    6.4282   -5.1839    1.1279 C   0  0  0  0  0  0  0  0  0  0  0  0
    7.3889   -5.6366    0.4858 O   0  0  0  0  0  0  0  0  0  0  0  0
    3.9319   -4.7638    1.0007 C   0  0  1  0  0  0  0  0  0  0  0  0
    3.1905   -6.0558    0.6836 C   0  0  1  0  0  0  0  0  0  0  0  0
    3.1172   -7.1708    1.7105 C   0  0  2  0  0  0  0  0  0  0  0  0
    1.8804   -7.9011    1.7931 O   0  0  0  0  0  0  0  0  0  0  0  0
    2.2415   -7.1306    2.9435 C   0  0  0  0  0  0  0  0  0  0  0  0
    2.6704   -7.8986    4.1809 C   0  0  0  0  0  0  0  0  0  0  0  0
    1.3113   -5.9751    3.2614 C   0  0  0  0  0  0  0  0  0  0  0  0
    1.9516   -5.2930    0.6326 O   0  0  0  0  0  0  0  0  0  0  0  0
    2.6661   -4.0366    0.5669 C   0  0  2  0  0  0  0  0  0  0  0  0
    2.5137   -3.4897   -0.8634 C   0  0  0  0  0  0  0  0  0  0  0  0
    2.3454   -2.9991    1.6388 C   0  0  0  0  0  0  0  0  0  0  0  0
    8.3440   -5.4642    3.1639 H   0  0  0  0  0  0  0  0  0  0  0  0
    7.6180   -7.0582    2.9173 H   0  0  0  0  0  0  0  0  0  0  0  0
    7.2627   -6.1393    4.3926 H   0  0  0  0  0  0  0  0  0  0  0  0
    5.0431   -5.0760    4.2864 H   0  0  0  0  0  0  0  0  0  0  0  0
    3.3558   -1.2378    3.3312 H   0  0  0  0  0  0  0  0  0  0  0  0
    4.0173   -2.3400    4.5208 H   0  0  0  0  0  0  0  0  0  0  0  0
    5.8048   -0.9382    3.3523 H   0  0  0  0  0  0  0  0  0  0  0  0
    6.0887   -2.6203    3.2386 H   0  0  0  0  0  0  0  0  0  0  0  0
    4.1414   -0.1260    1.0880 H   0  0  0  0  0  0  0  0  0  0  0  0
    5.3630   -0.2847   -0.1870 H   0  0  0  0  0  0  0  0  0  0  0  0
    5.7998    0.3801    1.3870 H   0  0  0  0  0  0  0  0  0  0  0  0
    5.3725   -2.5384   -0.7189 H   0  0  0  0  0  0  0  0  0  0  0  0
    5.3279   -4.7790   -0.6405 H   0  0  0  0  0  0  0  0  0  0  0  0
    3.5052   -6.4286   -0.3097 H   0  0  0  0  0  0  0  0  0  0  0  0
    4.0001   -7.7931    1.7339 H   0  0  0  0  0  0  0  0  0  0  0  0
    3.3142   -7.2788    4.8072 H   0  0  0  0  0  0  0  0  0  0  0  0
    3.2207   -8.8063    3.9212 H   0  0  0  0  0  0  0  0  0  0  0  0
    1.7968   -8.1800    4.7566 H   0  0  0  0  0  0  0  0  0  0  0  0
    1.9141   -5.1598    3.6959 H   0  0  0  0  0  0  0  0  0  0  0  0
    0.5668   -6.2557    4.0367 H   0  0  0  0  0  0  0  0  0  0  0  0
    0.8315   -5.6443    2.3785 H   0  0  0  0  0  0  0  0  0  0  0  0
    3.0853   -2.5670   -1.0040 H   0  0  0  0  0  0  0  0  0  0  0  0
    1.4623   -3.2666   -1.0681 H   0  0  0  0  0  0  0  0  0  0  0  0
    2.8422   -4.2234   -1.5812 H   0  0  0  0  0  0  0  0  0  0  0  0
    1.3644   -3.1351    2.0789 H   0  0  0  0  0  0  0  0  0  0  0  0
    2.4224   -1.9741    1.2838 H   0  0  0  0  0  0  0  0  0  0  0  0
  1  2  1  0
  1 26  1  0
  1 27  1  0
  1 28  1  0
  2 13  1  0
  2  3  2  0
  3  4  1  0
  3 29  1  0
 15  4  1  1
  4  5  2  0
  5 25  1  0
  5  6  1  0
  6  7  1  0
  6 30  1  0
  6 31  1  0
  7  8  1  0
  7 32  1  0
  7 33  1  0
  8 11  1  0
  8  9  1  6
  8 10  1  0
  9 34  1  0
  9 35  1  0
  9 36  1  0
 10 11  1  0
 11 12  1  0
 11 37  1  6
 12 13  1  0
 12 15  1  0
 12 38  1  6
 13 14  2  0
 15 23  1  0
 15 16  1  0
 16 17  1  0
 16 22  1  0
 16 39  1  6
 17 19  1  0
 17 18  1  0
 17 40  1  1
 18 19  1  0
 19 20  1  0
 19 21  1  0
 20 41  1  0
 20 42  1  0
 20 43  1  0
 21 44  1  0
 21 45  1  0
 21 46  1  0
 22 23  1  0
 23 24  1  6
 23 25  1  0
 24 47  1  0
 24 48  1  0
 24 49  1  0
 25 50  1  0
 25 51  1  0
M  END
>  <i_m_ct_stereo_status>  (43) 
1

>  <s_m_source_file>  (43) 
/var/tmp/pbs.5076255.sched01/tmpuvpulguu/0mmv31ww_.sdf

>  <i_m_source_file_index>  (43) 
25

>  <i_lp_mmshare_version>  (43) 
48012

>  <i_f3d_flags>  (43) 
0

>  <s_epik_input>  (43) 
W0NIM11DKD1bQ0hdMSlDKD1PKVtDQEBIXTJbQ0BIXShPMylbQ0BAXTMoW0NIM10pW0NIMl1bQ0gyXUMoPUMxW0NAQF0yNDUpW0NIMl1bQ0BdNShbQ0gzXSlPW0NAQEhdNFtDQEhdKE82KUM2KFtDSDNdKVtDSDNd

>  <s_epik_cmdline>  (43) 
J2VwaWtfcHl0aG9uJywgJy1waHQnLCAnMi4wJywgJy1waCcsICc3LjAnLCAnLXRuJywgJzgnLCAnLW1hJywgJzIwMCcsICctaW1hZScsICc8aW5maWxlLm1hZT4nLCAnLW9tYWUnLCAnPG91dGZpbGUubWFlPic=

>  <r_lp_tautomer_probability>  (43) 
1

>  <r_epik_Ionization_Penalty>  (43) 
3.76007e-12

>  <r_epik_Ionization_Penalty_Charging>  (43) 
0

>  <r_epik_Ionization_Penalty_Neutral>  (43) 
3.76007e-12

>  <r_epik_State_Penalty>  (43) 
-0

>  <r_epik_Charging_Adjusted_Penalty>  (43) 
0

>  <i_epik_Tot_Q>  (43) 
0

>  <i_epik_Tot_abs_Q>  (43) 
0

>  <s_lp_Force_Field>  (43) 
OPLS3e

>  <r_lp_Energy>  (43) 
50.371

>  <b_lp_Chiralities_Consistent>  (43) 
1

>  <s_lp_Variant>  (43) 
12:0-1

>  <s_i_glide_gridfile>  (43) 
pfpi4k_grid

>  <i_i_glide_lignum>  (43) 
25

>  <i_i_glide_rotatable_bonds>  (43) 
1

>  <r_i_docking_score>  (43) 
-2.99736

>  <r_i_glide_ligand_efficiency>  (43) 
-0.119894

>  <r_i_glide_ligand_efficiency_sa>  (43) 
-0.350574

>  <r_i_glide_ligand_efficiency_ln>  (43) 
-0.710465

>  <r_i_glide_gscore>  (43) 
-2.99736

>  <r_i_glide_lipo>  (43) 
-0.567941

>  <r_i_glide_hbond>  (43) 
-0.0716905

>  <r_i_glide_metal>  (43) 
-0

>  <r_i_glide_rewards>  (43) 
-1.20606

>  <r_i_glide_evdw>  (43) 
-17.0958

>  <r_i_glide_ecoul>  (43) 
-3.05733

>  <r_i_glide_erotb>  (43) 
0.161716

>  <r_i_glide_esite>  (43) 
0

>  <r_i_glide_emodel>  (43) 
-19.2867

>  <r_i_glide_energy>  (43) 
-20.1531

>  <r_i_glide_einternal>  (43) 
7.02884

>  <r_i_glide_intrahb_reward>  (43) 
-0

>  <i_i_glide_confnum>  (43) 
3

>  <i_i_glide_posenum>  (43) 
26

>  <r_i_glide_eff_state_penalty>  (43) 
0

>  <ligand_id>  (43) 
12

>  <original_smiles>  (43) 
CC1=CC2=C3CCC4(C)OC4C(C1=O)C21C(C2OC2(C)C)OC1(C)C3

>  <smiles>  (43) 
[H]C1=C(C([H])([H])[H])C(=O)C2([H])C3([H])OC3(C([H])([H])[H])C([H])([H])C([H])([H])C3=C1C21C([H])(C2([H])OC2(C([H])([H])[H])C([H])([H])[H])OC1(C([H])([H])[H])C3([H])[H]

$$$$
12:0:1
     RDKit          3D

 51 56  0  0  1  0  0  0  0  0999 V2000
    6.3409   -7.5330    4.3328 C   0  0  0  0  0  0  0  0  0  0  0  0
    5.3560   -6.8130    3.4328 C   0  0  0  0  0  0  0  0  0  0  0  0
    4.6032   -5.7664    3.8272 C   0  0  0  0  0  0  0  0  0  0  0  0
    3.6125   -5.1888    2.9384 C   0  0  0  0  0  0  0  0  0  0  0  0
    3.3887   -3.8905    2.7004 C   0  0  0  0  0  0  0  0  0  0  0  0
    4.5146   -2.8808    2.7923 C   0  0  0  0  0  0  0  0  0  0  0  0
    5.8000   -3.4485    2.1249 C   0  0  0  0  0  0  0  0  0  0  0  0
    5.6407   -4.0299    0.7142 C   0  0  1  0  0  0  0  0  0  0  0  0
    5.7578   -2.9338   -0.3256 C   0  0  0  0  0  0  0  0  0  0  0  0
    6.4700   -5.1747    0.5049 O   0  0  0  0  0  0  0  0  0  0  0  0
    5.0770   -5.3955    0.2589 C   0  0  1  0  0  0  0  0  0  0  0  0
    4.3613   -6.5078    1.0516 C   0  0  1  0  0  0  0  0  0  0  0  0
    5.2613   -7.3006    2.0208 C   0  0  0  0  0  0  0  0  0  0  0  0
    5.8553   -8.2879    1.6002 O   0  0  0  0  0  0  0  0  0  0  0  0
    3.1098   -6.0042    1.7919 C   0  0  1  0  0  0  0  0  0  0  0  0
    1.9200   -6.8831    2.1105 C   0  0  1  0  0  0  0  0  0  0  0  0
    1.6828   -7.4775    3.4871 C   0  0  2  0  0  0  0  0  0  0  0  0
    2.4770   -8.6251    3.8069 O   0  0  0  0  0  0  0  0  0  0  0  0
    1.0642   -8.8418    3.6918 C   0  0  0  0  0  0  0  0  0  0  0  0
    0.3421   -9.1739    4.9837 C   0  0  0  0  0  0  0  0  0  0  0  0
    0.6348   -9.7142    2.5277 C   0  0  0  0  0  0  0  0  0  0  0  0
    1.0158   -5.7834    1.8238 O   0  0  0  0  0  0  0  0  0  0  0  0
    2.0978   -5.0844    1.1311 C   0  0  2  0  0  0  0  0  0  0  0  0
    1.8507   -5.1572   -0.3685 C   0  0  0  0  0  0  0  0  0  0  0  0
    2.3386   -3.6636    1.6437 C   0  0  0  0  0  0  0  0  0  0  0  0
    7.3419   -7.4609    3.9110 H   0  0  0  0  0  0  0  0  0  0  0  0
    6.0771   -8.5880    4.4172 H   0  0  0  0  0  0  0  0  0  0  0  0
    6.3556   -7.1014    5.3343 H   0  0  0  0  0  0  0  0  0  0  0  0
    4.6570   -5.4007    4.8460 H   0  0  0  0  0  0  0  0  0  0  0  0
    4.2123   -1.9563    2.2911 H   0  0  0  0  0  0  0  0  0  0  0  0
    4.7027   -2.6365    3.8384 H   0  0  0  0  0  0  0  0  0  0  0  0
    6.5613   -2.6724    2.0935 H   0  0  0  0  0  0  0  0  0  0  0  0
    6.2341   -4.2197    2.7527 H   0  0  0  0  0  0  0  0  0  0  0  0
    4.9167   -2.2431   -0.2353 H   0  0  0  0  0  0  0  0  0  0  0  0
    5.7306   -3.3654   -1.3276 H   0  0  0  0  0  0  0  0  0  0  0  0
    6.6883   -2.3770   -0.2234 H   0  0  0  0  0  0  0  0  0  0  0  0
    4.8503   -5.4601   -0.7971 H   0  0  0  0  0  0  0  0  0  0  0  0
    4.0442   -7.2356    0.3010 H   0  0  0  0  0  0  0  0  0  0  0  0
    1.8493   -7.6194    1.3107 H   0  0  0  0  0  0  0  0  0  0  0  0
    1.6144   -6.7634    4.3075 H   0  0  0  0  0  0  0  0  0  0  0  0
   -0.7133   -8.9192    4.8951 H   0  0  0  0  0  0  0  0  0  0  0  0
    0.7680   -8.6032    5.8090 H   0  0  0  0  0  0  0  0  0  0  0  0
    0.4284  -10.2348    5.2222 H   0  0  0  0  0  0  0  0  0  0  0  0
   -0.3003   -9.3313    2.1179 H   0  0  0  0  0  0  0  0  0  0  0  0
    0.5078  -10.7559    2.8186 H   0  0  0  0  0  0  0  0  0  0  0  0
    1.3874   -9.6944    1.7373 H   0  0  0  0  0  0  0  0  0  0  0  0
    2.6669   -4.6674   -0.8908 H   0  0  0  0  0  0  0  0  0  0  0  0
    0.9548   -4.6537   -0.7153 H   0  0  0  0  0  0  0  0  0  0  0  0
    1.7686   -6.1896   -0.7041 H   0  0  0  0  0  0  0  0  0  0  0  0
    1.4477   -3.2105    2.0806 H   0  0  0  0  0  0  0  0  0  0  0  0
    2.7169   -3.0222    0.8507 H   0  0  0  0  0  0  0  0  0  0  0  0
  1  2  1  0
  1 26  1  0
  1 27  1  0
  1 28  1  0
  2 13  1  0
  2  3  2  0
  3  4  1  0
  3 29  1  0
 15  4  1  1
  4  5  2  0
  5 25  1  0
  5  6  1  0
  6  7  1  0
  6 30  1  0
  6 31  1  0
  7  8  1  0
  7 32  1  0
  7 33  1  0
  8 11  1  0
  8  9  1  6
  8 10  1  0
  9 34  1  0
  9 35  1  0
  9 36  1  0
 10 11  1  0
 11 12  1  0
 11 37  1  6
 12 13  1  0
 12 15  1  0
 12 38  1  6
 13 14  2  0
 15 23  1  0
 15 16  1  0
 16 17  1  0
 16 22  1  0
 16 39  1  6
 17 19  1  0
 17 18  1  0
 17 40  1  1
 18 19  1  0
 19 20  1  0
 19 21  1  0
 20 41  1  0
 20 42  1  0
 20 43  1  0
 21 44  1  0
 21 45  1  0
 21 46  1  0
 22 23  1  0
 23 24  1  6
 23 25  1  0
 24 47  1  0
 24 48  1  0
 24 49  1  0
 25 50  1  0
 25 51  1  0
M  END
>  <i_m_ct_stereo_status>  (44) 
1

>  <s_m_source_file>  (44) 
/var/tmp/pbs.5076255.sched01/tmpuvpulguu/0mmv31ww_.sdf

>  <i_m_source_file_index>  (44) 
25

>  <i_lp_mmshare_version>  (44) 
48012

>  <i_f3d_flags>  (44) 
0

>  <s_epik_input>  (44) 
W0NIM11DKD1bQ0hdMSlDKD1PKVtDQEBIXTJbQ0BIXShPMylbQ0BAXTMoW0NIM10pW0NIMl1bQ0gyXUMoPUMxW0NAQF0yNDUpW0NIMl1bQ0BdNShbQ0gzXSlPW0NAQEhdNFtDQEhdKE82KUM2KFtDSDNdKVtDSDNd

>  <s_epik_cmdline>  (44) 
J2VwaWtfcHl0aG9uJywgJy1waHQnLCAnMi4wJywgJy1waCcsICc3LjAnLCAnLXRuJywgJzgnLCAnLW1hJywgJzIwMCcsICctaW1hZScsICc8aW5maWxlLm1hZT4nLCAnLW9tYWUnLCAnPG91dGZpbGUubWFlPic=

>  <r_lp_tautomer_probability>  (44) 
1

>  <r_epik_Ionization_Penalty>  (44) 
3.76007e-12

>  <r_epik_Ionization_Penalty_Charging>  (44) 
0

>  <r_epik_Ionization_Penalty_Neutral>  (44) 
3.76007e-12

>  <r_epik_State_Penalty>  (44) 
-0

>  <r_epik_Charging_Adjusted_Penalty>  (44) 
0

>  <i_epik_Tot_Q>  (44) 
0

>  <i_epik_Tot_abs_Q>  (44) 
0

>  <s_lp_Force_Field>  (44) 
OPLS3e

>  <r_lp_Energy>  (44) 
50.371

>  <b_lp_Chiralities_Consistent>  (44) 
1

>  <s_lp_Variant>  (44) 
12:0-1

>  <s_i_glide_gridfile>  (44) 
pfpi4k_grid

>  <i_i_glide_lignum>  (44) 
25

>  <i_i_glide_rotatable_bonds>  (44) 
1

>  <r_i_docking_score>  (44) 
-2.86813

>  <r_i_glide_ligand_efficiency>  (44) 
-0.114725

>  <r_i_glide_ligand_efficiency_sa>  (44) 
-0.335459

>  <r_i_glide_ligand_efficiency_ln>  (44) 
-0.679833

>  <r_i_glide_gscore>  (44) 
-2.86813

>  <r_i_glide_lipo>  (44) 
-0.403144

>  <r_i_glide_hbond>  (44) 
-0.119959

>  <r_i_glide_metal>  (44) 
-0

>  <r_i_glide_rewards>  (44) 
-1.12486

>  <r_i_glide_evdw>  (44) 
-15.8298

>  <r_i_glide_ecoul>  (44) 
-3.93596

>  <r_i_glide_erotb>  (44) 
0.161716

>  <r_i_glide_esite>  (44) 
0

>  <r_i_glide_emodel>  (44) 
-22.9413

>  <r_i_glide_energy>  (44) 
-19.7658

>  <r_i_glide_einternal>  (44) 
0.124695

>  <r_i_glide_intrahb_reward>  (44) 
-0

>  <i_i_glide_confnum>  (44) 
1

>  <i_i_glide_posenum>  (44) 
10

>  <r_i_glide_eff_state_penalty>  (44) 
0

>  <ligand_id>  (44) 
12

>  <original_smiles>  (44) 
CC1=CC2=C3CCC4(C)OC4C(C1=O)C21C(C2OC2(C)C)OC1(C)C3

>  <smiles>  (44) 
[H]C1=C(C([H])([H])[H])C(=O)C2([H])C3([H])OC3(C([H])([H])[H])C([H])([H])C([H])([H])C3=C1C21C([H])(C2([H])OC2(C([H])([H])[H])C([H])([H])[H])OC1(C([H])([H])[H])C3([H])[H]

$$$$
12:0:2
     RDKit          3D

 51 56  0  0  1  0  0  0  0  0999 V2000
    7.3398   -5.9284    3.8026 C   0  0  0  0  0  0  0  0  0  0  0  0
    6.1602   -5.3601    3.0377 C   0  0  0  0  0  0  0  0  0  0  0  0
    5.1273   -4.7108    3.6203 C   0  0  0  0  0  0  0  0  0  0  0  0
    3.9882   -4.2672    2.8400 C   0  0  0  0  0  0  0  0  0  0  0  0
    3.3818   -3.0745    2.8768 C   0  0  0  0  0  0  0  0  0  0  0  0
    4.1407   -1.8200    3.2584 C   0  0  0  0  0  0  0  0  0  0  0  0
    5.5261   -1.7979    2.5528 C   0  0  0  0  0  0  0  0  0  0  0  0
    5.5242   -2.0600    1.0387 C   0  0  1  0  0  0  0  0  0  0  0  0
    5.2690   -0.7722    0.2738 C   0  0  0  0  0  0  0  0  0  0  0  0
    6.6649   -2.8193    0.6170 O   0  0  0  0  0  0  0  0  0  0  0  0
    5.3951   -3.3884    0.2611 C   0  0  1  0  0  0  0  0  0  0  0  0
    5.0732   -4.8226    0.7420 C   0  0  1  0  0  0  0  0  0  0  0  0
    6.1927   -5.5052    1.5516 C   0  0  0  0  0  0  0  0  0  0  0  0
    7.0585   -6.1405    0.9503 O   0  0  0  0  0  0  0  0  0  0  0  0
    3.7376   -4.9093    1.5088 C   0  0  1  0  0  0  0  0  0  0  0  0
    2.8874   -6.1581    1.5591 C   0  0  1  0  0  0  0  0  0  0  0  0
    2.8866   -7.0943    2.7620 C   0  0  2  0  0  0  0  0  0  0  0  0
    4.0661   -7.8999    2.9146 O   0  0  0  0  0  0  0  0  0  0  0  0
    2.8520   -8.5953    2.6161 C   0  0  0  0  0  0  0  0  0  0  0  0
    2.2958   -9.4706    3.7232 C   0  0  0  0  0  0  0  0  0  0  0  0
    2.8237   -9.2630    1.2633 C   0  0  0  0  0  0  0  0  0  0  0  0
    1.6852   -5.3469    1.4936 O   0  0  0  0  0  0  0  0  0  0  0  0
    2.4783   -4.2150    1.0144 C   0  0  2  0  0  0  0  0  0  0  0  0
    2.2434   -4.0114   -0.4832 C   0  0  0  0  0  0  0  0  0  0  0  0
    2.2870   -2.9458    1.8411 C   0  0  0  0  0  0  0  0  0  0  0  0
    8.2649   -5.4657    3.4583 H   0  0  0  0  0  0  0  0  0  0  0  0
    7.4133   -7.0065    3.6429 H   0  0  0  0  0  0  0  0  0  0  0  0
    7.2454   -5.7479    4.8739 H   0  0  0  0  0  0  0  0  0  0  0  0
    5.0937   -4.5867    4.6944 H   0  0  0  0  0  0  0  0  0  0  0  0
    3.5513   -0.9488    2.9587 H   0  0  0  0  0  0  0  0  0  0  0  0
    4.2534   -1.7826    4.3417 H   0  0  0  0  0  0  0  0  0  0  0  0
    6.0064   -0.8431    2.7534 H   0  0  0  0  0  0  0  0  0  0  0  0
    6.1984   -2.5161    3.0092 H   0  0  0  0  0  0  0  0  0  0  0  0
    4.2582   -0.4129    0.4755 H   0  0  0  0  0  0  0  0  0  0  0  0
    5.3520   -0.9472   -0.7980 H   0  0  0  0  0  0  0  0  0  0  0  0
    5.9801    0.0087    0.5453 H   0  0  0  0  0  0  0  0  0  0  0  0
    5.1769   -3.2793   -0.7958 H   0  0  0  0  0  0  0  0  0  0  0  0
    4.9752   -5.4192   -0.1666 H   0  0  0  0  0  0  0  0  0  0  0  0
    3.0252   -6.6828    0.6126 H   0  0  0  0  0  0  0  0  0  0  0  0
    2.5369   -6.6678    3.6991 H   0  0  0  0  0  0  0  0  0  0  0  0
    1.2264   -9.6219    3.5785 H   0  0  0  0  0  0  0  0  0  0  0  0
    2.4489   -8.9921    4.6895 H   0  0  0  0  0  0  0  0  0  0  0  0
    2.7875  -10.4452    3.7413 H   0  0  0  0  0  0  0  0  0  0  0  0
    1.8120   -9.1866    0.8644 H   0  0  0  0  0  0  0  0  0  0  0  0
    3.1093  -10.3027    1.3282 H   0  0  0  0  0  0  0  0  0  0  0  0
    3.5201   -8.7824    0.5734 H   0  0  0  0  0  0  0  0  0  0  0  0
    2.8863   -3.2257   -0.8797 H   0  0  0  0  0  0  0  0  0  0  0  0
    1.2272   -3.7380   -0.7420 H   0  0  0  0  0  0  0  0  0  0  0  0
    2.4562   -4.9232   -1.0238 H   0  0  0  0  0  0  0  0  0  0  0  0
    1.3073   -2.8947    2.3173 H   0  0  0  0  0  0  0  0  0  0  0  0
    2.4334   -2.0568    1.2259 H   0  0  0  0  0  0  0  0  0  0  0  0
  1  2  1  0
  1 26  1  0
  1 27  1  0
  1 28  1  0
  2 13  1  0
  2  3  2  0
  3  4  1  0
  3 29  1  0
 15  4  1  1
  4  5  2  0
  5 25  1  0
  5  6  1  0
  6  7  1  0
  6 30  1  0
  6 31  1  0
  7  8  1  0
  7 32  1  0
  7 33  1  0
  8 11  1  0
  8  9  1  6
  8 10  1  0
  9 34  1  0
  9 35  1  0
  9 36  1  0
 10 11  1  0
 11 12  1  0
 11 37  1  6
 12 13  1  0
 12 15  1  0
 12 38  1  6
 13 14  2  0
 15 23  1  0
 15 16  1  0
 16 17  1  0
 16 22  1  0
 16 39  1  6
 17 19  1  0
 17 18  1  0
 17 40  1  1
 18 19  1  0
 19 20  1  0
 19 21  1  0
 20 41  1  0
 20 42  1  0
 20 43  1  0
 21 44  1  0
 21 45  1  0
 21 46  1  0
 22 23  1  0
 23 24  1  6
 23 25  1  0
 24 47  1  0
 24 48  1  0
 24 49  1  0
 25 50  1  0
 25 51  1  0
M  END
>  <i_m_ct_stereo_status>  (45) 
1

>  <s_m_source_file>  (45) 
/var/tmp/pbs.5076255.sched01/tmpuvpulguu/0mmv31ww_.sdf

>  <i_m_source_file_index>  (45) 
25

>  <i_lp_mmshare_version>  (45) 
48012

>  <i_f3d_flags>  (45) 
0

>  <s_epik_input>  (45) 
W0NIM11DKD1bQ0hdMSlDKD1PKVtDQEBIXTJbQ0BIXShPMylbQ0BAXTMoW0NIM10pW0NIMl1bQ0gyXUMoPUMxW0NAQF0yNDUpW0NIMl1bQ0BdNShbQ0gzXSlPW0NAQEhdNFtDQEhdKE82KUM2KFtDSDNdKVtDSDNd

>  <s_epik_cmdline>  (45) 
J2VwaWtfcHl0aG9uJywgJy1waHQnLCAnMi4wJywgJy1waCcsICc3LjAnLCAnLXRuJywgJzgnLCAnLW1hJywgJzIwMCcsICctaW1hZScsICc8aW5maWxlLm1hZT4nLCAnLW9tYWUnLCAnPG91dGZpbGUubWFlPic=

>  <r_lp_tautomer_probability>  (45) 
1

>  <r_epik_Ionization_Penalty>  (45) 
3.76007e-12

>  <r_epik_Ionization_Penalty_Charging>  (45) 
0

>  <r_epik_Ionization_Penalty_Neutral>  (45) 
3.76007e-12

>  <r_epik_State_Penalty>  (45) 
-0

>  <r_epik_Charging_Adjusted_Penalty>  (45) 
0

>  <i_epik_Tot_Q>  (45) 
0

>  <i_epik_Tot_abs_Q>  (45) 
0

>  <s_lp_Force_Field>  (45) 
OPLS3e

>  <r_lp_Energy>  (45) 
50.371

>  <b_lp_Chiralities_Consistent>  (45) 
1

>  <s_lp_Variant>  (45) 
12:0-1

>  <s_i_glide_gridfile>  (45) 
pfpi4k_grid

>  <i_i_glide_lignum>  (45) 
25

>  <i_i_glide_rotatable_bonds>  (45) 
1

>  <r_i_docking_score>  (45) 
-2.80137

>  <r_i_glide_ligand_efficiency>  (45) 
-0.112055

>  <r_i_glide_ligand_efficiency_sa>  (45) 
-0.32765

>  <r_i_glide_ligand_efficiency_ln>  (45) 
-0.664008

>  <r_i_glide_gscore>  (45) 
-2.80137

>  <r_i_glide_lipo>  (45) 
-0.420592

>  <r_i_glide_hbond>  (45) 
-0.0883271

>  <r_i_glide_metal>  (45) 
-0

>  <r_i_glide_rewards>  (45) 
-1.17617

>  <r_i_glide_evdw>  (45) 
-14.3171

>  <r_i_glide_ecoul>  (45) 
-3.74758

>  <r_i_glide_erotb>  (45) 
0.161716

>  <r_i_glide_esite>  (45) 
0

>  <r_i_glide_emodel>  (45) 
-21.031

>  <r_i_glide_energy>  (45) 
-18.0647

>  <r_i_glide_einternal>  (45) 
0.400925

>  <r_i_glide_intrahb_reward>  (45) 
-0

>  <i_i_glide_confnum>  (45) 
3

>  <i_i_glide_posenum>  (45) 
18

>  <r_i_glide_eff_state_penalty>  (45) 
0

>  <ligand_id>  (45) 
12

>  <original_smiles>  (45) 
CC1=CC2=C3CCC4(C)OC4C(C1=O)C21C(C2OC2(C)C)OC1(C)C3

>  <smiles>  (45) 
[H]C1=C(C([H])([H])[H])C(=O)C2([H])C3([H])OC3(C([H])([H])[H])C([H])([H])C([H])([H])C3=C1C21C([H])(C2([H])OC2(C([H])([H])[H])C([H])([H])[H])OC1(C([H])([H])[H])C3([H])[H]

$$$$
13:0:0
     RDKit          3D

 80 85  0  0  1  0  0  0  0  0999 V2000
    4.1685   -5.0044    5.8373 C   0  0  0  0  0  0  0  0  0  0  0  0
    3.2294   -4.1298    4.9910 C   0  0  0  0  0  0  0  0  0  0  0  0
    2.1713   -5.0187    4.3066 C   0  0  0  0  0  0  0  0  0  0  0  0
    2.5231   -3.0058    5.7853 C   0  0  0  0  0  0  0  0  0  0  0  0
    2.4335   -1.8336    4.8114 C   0  0  0  0  0  0  0  0  0  0  0  0
    1.4858   -0.8613    4.7423 C   0  0  0  0  0  0  0  0  0  0  0  0
    0.2815   -0.8099    5.6641 C   0  0  0  0  0  0  0  0  0  0  0  0
    0.0040    0.5987    6.2017 C   0  0  0  0  0  0  0  0  0  0  0  0
   -0.0538    1.6428    5.0616 C   0  0  1  0  0  0  0  0  0  0  0  0
   -0.6937    3.0242    5.4825 C   0  0  0  0  0  0  0  0  0  0  0  0
   -2.2189    2.8219    5.6954 C   0  0  0  0  0  0  0  0  0  0  0  0
   -0.1191    3.6286    6.7868 C   0  0  0  0  0  0  0  0  0  0  0  0
   -0.4959    4.0747    4.3604 C   0  0  0  0  0  0  0  0  0  0  0  0
   -1.3407    4.9113    4.0819 O   0  0  0  0  0  0  0  0  0  0  0  0
    0.8369    4.0891    3.6348 C   0  0  0  0  0  0  0  0  0  0  0  0
    1.1656    2.6906    3.1091 C   0  0  0  0  0  0  0  0  0  0  0  0
    1.3000    1.6542    4.2533 C   0  0  1  0  0  0  0  0  0  0  0  0
    2.5281    2.0274    5.1362 C   0  0  0  0  0  0  0  0  0  0  0  0
    1.5163    0.2208    3.6423 C   0  0  1  0  0  0  0  0  0  0  0  0
    2.7498    0.1045    2.6898 C   0  0  0  0  0  0  0  0  0  0  0  0
    3.1784   -1.3545    2.4474 C   0  0  1  0  0  0  0  0  0  0  0  0
    4.3324   -1.3957    1.5964 O   0  0  0  0  0  0  0  0  0  0  0  0
    4.0775   -1.5026    0.2062 C   0  0  2  0  0  0  0  0  0  0  0  0
    3.3430   -2.6593   -0.1569 O   0  0  0  0  0  0  0  0  0  0  0  0
    3.9684   -3.9074    0.1907 C   0  0  1  0  0  0  0  0  0  0  0  0
    2.9640   -5.0453   -0.0848 C   0  0  0  0  0  0  0  0  0  0  0  0
    2.1459   -5.3328    1.0394 O   0  0  0  0  0  0  0  0  0  0  0  0
    5.2828   -4.0361   -0.5996 C   0  0  1  0  0  0  0  0  0  0  0  0
    5.0377   -4.2260   -1.9861 O   0  0  0  0  0  0  0  0  0  0  0  0
    6.1653   -2.7942   -0.3416 C   0  0  1  0  0  0  0  0  0  0  0  0
    7.3496   -2.8588   -1.1226 O   0  0  0  0  0  0  0  0  0  0  0  0
    5.3984   -1.4783   -0.5849 C   0  0  1  0  0  0  0  0  0  0  0  0
    5.0860   -1.3306   -1.9604 O   0  0  0  0  0  0  0  0  0  0  0  0
    3.5023   -1.9908    3.7976 C   0  0  1  0  0  0  0  0  0  0  0  0
    4.9330   -2.2092    4.2746 C   0  0  0  0  0  0  0  0  0  0  0  0
    4.0399   -3.3932    3.9428 C   0  0  1  0  0  0  0  0  0  0  0  0
    3.6357   -5.5329    6.6284 H   0  0  0  0  0  0  0  0  0  0  0  0
    4.9589   -4.4065    6.2921 H   0  0  0  0  0  0  0  0  0  0  0  0
    4.6628   -5.7482    5.2105 H   0  0  0  0  0  0  0  0  0  0  0  0
    1.5008   -4.4308    3.6785 H   0  0  0  0  0  0  0  0  0  0  0  0
    1.5578   -5.5422    5.0391 H   0  0  0  0  0  0  0  0  0  0  0  0
    2.6334   -5.7788    3.6794 H   0  0  0  0  0  0  0  0  0  0  0  0
    1.5659   -3.3142    6.1983 H   0  0  0  0  0  0  0  0  0  0  0  0
    3.1669   -2.6848    6.6000 H   0  0  0  0  0  0  0  0  0  0  0  0
   -0.5793   -1.1505    5.0894 H   0  0  0  0  0  0  0  0  0  0  0  0
    0.3956   -1.4993    6.5022 H   0  0  0  0  0  0  0  0  0  0  0  0
   -0.9326    0.5747    6.7598 H   0  0  0  0  0  0  0  0  0  0  0  0
    0.7766    0.8607    6.9238 H   0  0  0  0  0  0  0  0  0  0  0  0
   -0.7764    1.2382    4.3533 H   0  0  0  0  0  0  0  0  0  0  0  0
   -2.4408    2.1311    6.5086 H   0  0  0  0  0  0  0  0  0  0  0  0
   -2.6903    2.4349    4.7919 H   0  0  0  0  0  0  0  0  0  0  0  0
   -2.7337    3.7507    5.9439 H   0  0  0  0  0  0  0  0  0  0  0  0
   -0.1090    2.9125    7.6075 H   0  0  0  0  0  0  0  0  0  0  0  0
   -0.7181    4.4784    7.1207 H   0  0  0  0  0  0  0  0  0  0  0  0
    0.8874    4.0137    6.6684 H   0  0  0  0  0  0  0  0  0  0  0  0
    0.7665    4.8094    2.8224 H   0  0  0  0  0  0  0  0  0  0  0  0
    1.6055    4.4649    4.3067 H   0  0  0  0  0  0  0  0  0  0  0  0
    0.3736    2.3818    2.4264 H   0  0  0  0  0  0  0  0  0  0  0  0
    2.0742    2.7524    2.5069 H   0  0  0  0  0  0  0  0  0  0  0  0
    3.4110    2.2157    4.5303 H   0  0  0  0  0  0  0  0  0  0  0  0
    2.7806    1.2431    5.8446 H   0  0  0  0  0  0  0  0  0  0  0  0
    2.3751    2.9334    5.7070 H   0  0  0  0  0  0  0  0  0  0  0  0
    0.6503   -0.0073    3.0246 H   0  0  0  0  0  0  0  0  0  0  0  0
    2.5356    0.5901    1.7382 H   0  0  0  0  0  0  0  0  0  0  0  0
    3.6163    0.6220    3.0969 H   0  0  0  0  0  0  0  0  0  0  0  0
    2.3556   -1.9202    2.0024 H   0  0  0  0  0  0  0  0  0  0  0  0
    3.4352   -0.6536   -0.0758 H   0  0  0  0  0  0  0  0  0  0  0  0
    4.2134   -3.8770    1.2329 H   0  0  0  0  0  0  0  0  0  0  0  0
    2.3247   -4.8094   -0.9340 H   0  0  0  0  0  0  0  0  0  0  0  0
    3.5115   -5.9520   -0.3211 H   0  0  0  0  0  0  0  0  0  0  0  0
    2.7072   -5.6619    1.7520 H   0  0  0  0  0  0  0  0  0  0  0  0
    5.8042   -4.9105   -0.2183 H   0  0  0  0  0  0  0  0  0  0  0  0
    4.4226   -4.9826   -2.1147 H   0  0  0  0  0  0  0  0  0  0  0  0
    6.4718   -2.8039    0.7088 H   0  0  0  0  0  0  0  0  0  0  0  0
    7.0749   -3.0499   -2.0327 H   0  0  0  0  0  0  0  0  0  0  0  0
    6.0017   -0.6249   -0.2635 H   0  0  0  0  0  0  0  0  0  0  0  0
    4.6048   -2.1306   -2.2269 H   0  0  0  0  0  0  0  0  0  0  0  0
    5.7309   -2.0182    3.5736 H   0  0  0  0  0  0  0  0  0  0  0  0
    5.1848   -2.0465    5.3215 H   0  0  0  0  0  0  0  0  0  0  0  0
    4.4183   -4.0024    3.1560 H   0  0  0  0  0  0  0  0  0  0  0  0
  1  2  1  0
  1 37  1  0
  1 38  1  0
  1 39  1  0
  2 36  1  0
  2  3  1  0
  2  4  1  0
  3 40  1  0
  3 41  1  0
  3 42  1  0
  4  5  1  0
  4 43  1  0
  4 44  1  0
  5 34  1  0
  5  6  2  0
  6 19  1  0
  6  7  1  0
  7  8  1  0
  7 45  1  0
  7 46  1  0
  8  9  1  0
  8 47  1  0
  8 48  1  0
  9 17  1  0
  9 10  1  0
  9 49  1  6
 10 11  1  0
 10 12  1  0
 10 13  1  0
 11 50  1  0
 11 51  1  0
 11 52  1  0
 12 53  1  0
 12 54  1  0
 12 55  1  0
 13 14  2  0
 13 15  1  0
 15 16  1  0
 15 56  1  0
 15 57  1  0
 16 17  1  0
 16 58  1  0
 16 59  1  0
 17 18  1  1
 17 19  1  0
 18 60  1  0
 18 61  1  0
 18 62  1  0
 19 20  1  0
 19 63  1  6
 20 21  1  0
 20 64  1  0
 20 65  1  0
 21 22  1  0
 21 34  1  0
 21 66  1  6
 22 23  1  0
 23 32  1  0
 23 24  1  0
 23 67  1  6
 24 25  1  0
 25 26  1  0
 25 28  1  0
 25 68  1  1
 26 27  1  0
 26 69  1  0
 26 70  1  0
 27 71  1  0
 28 29  1  0
 28 30  1  0
 28 72  1  1
 29 73  1  0
 30 31  1  0
 30 32  1  0
 30 74  1  1
 31 75  1  0
 32 33  1  0
 32 76  1  1
 33 77  1  0
 34 36  1  0
 34 35  1  1
 35 36  1  0
 35 78  1  0
 35 79  1  0
 36 80  1  6
M  END
>  <i_m_ct_stereo_status>  (46) 
1

>  <s_m_source_file>  (46) 
/var/tmp/pbs.5076255.sched01/tmpuvpulguu/0mmv31ww_.sdf

>  <i_m_source_file_index>  (46) 
26

>  <i_lp_mmshare_version>  (46) 
48012

>  <i_f3d_flags>  (46) 
0

>  <s_epik_input>  (46) 
W0NIMl0xW0NIMl1DKD1PKUMoW0NIM10pKFtDSDNdKVtDQEhdKFtDSDJdW0NIMl0yKVtDQEBdMShbQ0gzXSlbQ0BIXShDMj1DKFtDQEBdMzQ1KVtDSDJdQyhbQ0gzXSkoW0NIM10pW0NAQEhdNVtDSDJdNClbQ0gyXVtDQEhdM09bQ0BASF02T1tDQEBIXShbQ0gyXVtPSF0pW0NAQEhdKFtPSF0pW0NAQEhdKFtPSF0pW0NASF02W09IXQ==

>  <s_epik_cmdline>  (46) 
J2VwaWtfcHl0aG9uJywgJy1waHQnLCAnMi4wJywgJy1waCcsICc3LjAnLCAnLXRuJywgJzgnLCAnLW1hJywgJzIwMCcsICctaW1hZScsICc8aW5maWxlLm1hZT4nLCAnLW9tYWUnLCAnPG91dGZpbGUubWFlPic=

>  <r_lp_tautomer_probability>  (46) 
1

>  <r_epik_Ionization_Penalty>  (46) 
2.46947e-06

>  <r_epik_Ionization_Penalty_Charging>  (46) 
0

>  <r_epik_Ionization_Penalty_Neutral>  (46) 
2.46947e-06

>  <r_epik_State_Penalty>  (46) 
-0

>  <r_epik_Charging_Adjusted_Penalty>  (46) 
0

>  <i_epik_Tot_Q>  (46) 
0

>  <i_epik_Tot_abs_Q>  (46) 
0

>  <s_epik_Chemistry_Notes>  (46) 
This compound contains an acetal/aminal-like group ( X-CH(R)-Y where X, Y are N, S, or O) that may be acid/base labile, releasing an aldehyde.

>  <s_lp_Force_Field>  (46) 
OPLS3e

>  <r_lp_Energy>  (46) 
50.682

>  <b_lp_Chiralities_Consistent>  (46) 
1

>  <s_lp_Variant>  (46) 
13:0-1

>  <s_i_glide_gridfile>  (46) 
pfpi4k_grid

>  <i_i_glide_lignum>  (46) 
26

>  <i_i_glide_rotatable_bonds>  (46) 
7

>  <r_i_docking_score>  (46) 
-3.41653

>  <r_i_glide_ligand_efficiency>  (46) 
-0.0949036

>  <r_i_glide_ligand_efficiency_sa>  (46) 
-0.313365

>  <r_i_glide_ligand_efficiency_ln>  (46) 
-0.745394

>  <r_i_glide_gscore>  (46) 
-3.41653

>  <r_i_glide_lipo>  (46) 
-0.166547

>  <r_i_glide_hbond>  (46) 
-0.123371

>  <r_i_glide_metal>  (46) 
-0

>  <r_i_glide_rewards>  (46) 
-0.5

>  <r_i_glide_evdw>  (46) 
-23.2645

>  <r_i_glide_ecoul>  (46) 
-10.8183

>  <r_i_glide_erotb>  (46) 
0.240871

>  <r_i_glide_esite>  (46) 
-0.0815082

>  <r_i_glide_emodel>  (46) 
-43.8261

>  <r_i_glide_energy>  (46) 
-34.0828

>  <r_i_glide_einternal>  (46) 
4.1721

>  <r_i_glide_intrahb_reward>  (46) 
-0.5

>  <i_i_glide_confnum>  (46) 
4

>  <i_i_glide_posenum>  (46) 
28

>  <r_i_glide_eff_state_penalty>  (46) 
0

>  <ligand_id>  (46) 
13

>  <original_smiles>  (46) 
CC1(C)CC2=C3CCC4C(C)(C)C(=O)CCC4(C)C3CC(OC3OC(CO)C(O)C(O)C3O)C23CC13

>  <smiles>  (46) 
[H]OC([H])([H])C1([H])OC([H])(OC2([H])C([H])([H])C3([H])C(=C4C([H])([H])C(C([H])([H])[H])(C([H])([H])[H])C5([H])C([H])([H])C425)C([H])([H])C([H])([H])C2([H])C(C([H])([H])[H])(C([H])([H])[H])C(=O)C([H])([H])C([H])([H])C32C([H])([H])[H])C([H])(O[H])C([H])(O[H])C1([H])O[H]

$$$$
13:0:1
     RDKit          3D

 80 85  0  0  1  0  0  0  0  0999 V2000
    4.2077   -4.9740    5.8775 C   0  0  0  0  0  0  0  0  0  0  0  0
    3.2675   -4.1082    5.0208 C   0  0  0  0  0  0  0  0  0  0  0  0
    2.2199   -5.0012    4.3323 C   0  0  0  0  0  0  0  0  0  0  0  0
    2.5511   -2.9919    5.8220 C   0  0  0  0  0  0  0  0  0  0  0  0
    2.4584   -1.8084    4.8580 C   0  0  0  0  0  0  0  0  0  0  0  0
    1.5044   -0.8521    4.7901 C   0  0  0  0  0  0  0  0  0  0  0  0
    0.2926   -0.8088    5.7090 C   0  0  0  0  0  0  0  0  0  0  0  0
    0.0026    0.5982    6.2463 C   0  0  0  0  0  0  0  0  0  0  0  0
   -0.0553    1.6480    5.1084 C   0  0  1  0  0  0  0  0  0  0  0  0
   -0.7085    3.0251    5.5334 C   0  0  0  0  0  0  0  0  0  0  0  0
   -2.2330    2.8117    5.7369 C   0  0  0  0  0  0  0  0  0  0  0  0
   -0.1463    3.6238    6.8437 C   0  0  0  0  0  0  0  0  0  0  0  0
   -0.5170    4.0738    4.4163 C   0  0  0  0  0  0  0  0  0  0  0  0
   -1.3802    4.8960    4.1313 O   0  0  0  0  0  0  0  0  0  0  0  0
    0.8176    4.1071    3.6943 C   0  0  0  0  0  0  0  0  0  0  0  0
    1.1685    2.7100    3.1681 C   0  0  0  0  0  0  0  0  0  0  0  0
    1.3013    1.6694    4.3107 C   0  0  1  0  0  0  0  0  0  0  0  0
    2.5205    2.0470    5.2000 C   0  0  0  0  0  0  0  0  0  0  0  0
    1.5320    0.2400    3.6995 C   0  0  1  0  0  0  0  0  0  0  0  0
    2.7702    0.1366    2.7519 C   0  0  0  0  0  0  0  0  0  0  0  0
    3.2138   -1.3172    2.5088 C   0  0  1  0  0  0  0  0  0  0  0  0
    4.3810   -1.3290    1.6745 O   0  0  0  0  0  0  0  0  0  0  0  0
    4.1324   -1.3647    0.2791 C   0  0  2  0  0  0  0  0  0  0  0  0
    3.4422   -2.5275   -0.1485 O   0  0  0  0  0  0  0  0  0  0  0  0
    4.1213   -3.7665    0.1013 C   0  0  1  0  0  0  0  0  0  0  0  0
    3.1637   -4.9164   -0.2583 C   0  0  0  0  0  0  0  0  0  0  0  0
    2.3198   -5.2848    0.8292 O   0  0  0  0  0  0  0  0  0  0  0  0
    5.4426   -3.7799   -0.6973 C   0  0  1  0  0  0  0  0  0  0  0  0
    5.1795   -3.8732   -2.0983 O   0  0  0  0  0  0  0  0  0  0  0  0
    6.2832   -2.5313   -0.3412 C   0  0  1  0  0  0  0  0  0  0  0  0
    7.5203   -2.4691   -1.0626 O   0  0  0  0  0  0  0  0  0  0  0  0
    5.4599   -1.2383   -0.5019 C   0  0  1  0  0  0  0  0  0  0  0  0
    5.1386   -1.0011   -1.8703 O   0  0  0  0  0  0  0  0  0  0  0  0
    3.5295   -1.9590    3.8532 C   0  0  1  0  0  0  0  0  0  0  0  0
    4.9603   -2.1781    4.3258 C   0  0  0  0  0  0  0  0  0  0  0  0
    4.0715   -3.3475    3.9848 C   0  0  1  0  0  0  0  0  0  0  0  0
    3.6712   -5.5068    6.6677 H   0  0  0  0  0  0  0  0  0  0  0  0
    4.9882   -4.3737    6.3470 H   0  0  0  0  0  0  0  0  0  0  0  0
    4.7124   -5.7183    5.2623 H   0  0  0  0  0  0  0  0  0  0  0  0
    1.5468   -4.4144    3.7084 H   0  0  0  0  0  0  0  0  0  0  0  0
    1.6093   -5.5296    5.0655 H   0  0  0  0  0  0  0  0  0  0  0  0
    2.6848   -5.7529    3.6977 H   0  0  0  0  0  0  0  0  0  0  0  0
    1.5922   -3.3099    6.2322 H   0  0  0  0  0  0  0  0  0  0  0  0
    3.1869   -2.6696    6.6493 H   0  0  0  0  0  0  0  0  0  0  0  0
   -0.5628   -1.1536    5.1253 H   0  0  0  0  0  0  0  0  0  0  0  0
    0.4069   -1.5002    6.5464 H   0  0  0  0  0  0  0  0  0  0  0  0
   -0.9339    0.5648    6.7990 H   0  0  0  0  0  0  0  0  0  0  0  0
    0.7689    0.8639    6.9788 H   0  0  0  0  0  0  0  0  0  0  0  0
   -0.7727    1.2372    4.3958 H   0  0  0  0  0  0  0  0  0  0  0  0
   -2.4545    2.1163    6.5442 H   0  0  0  0  0  0  0  0  0  0  0  0
   -2.6955    2.4233    4.8267 H   0  0  0  0  0  0  0  0  0  0  0  0
   -2.7507    3.7391    5.9837 H   0  0  0  0  0  0  0  0  0  0  0  0
   -0.1367    2.9056    7.6601 H   0  0  0  0  0  0  0  0  0  0  0  0
   -0.7535    4.4678    7.1748 H   0  0  0  0  0  0  0  0  0  0  0  0
    0.8621    4.0189    6.7324 H   0  0  0  0  0  0  0  0  0  0  0  0
    0.7505    4.8213    2.8800 H   0  0  0  0  0  0  0  0  0  0  0  0
    1.5881    4.4801    4.3666 H   0  0  0  0  0  0  0  0  0  0  0  0
    0.3857    2.3941    2.4758 H   0  0  0  0  0  0  0  0  0  0  0  0
    2.0775    2.7752    2.5747 H   0  0  0  0  0  0  0  0  0  0  0  0
    3.4083    2.2429    4.6027 H   0  0  0  0  0  0  0  0  0  0  0  0
    2.7772    1.2616    5.9105 H   0  0  0  0  0  0  0  0  0  0  0  0
    2.3602    2.9501    5.7753 H   0  0  0  0  0  0  0  0  0  0  0  0
    0.6698    0.0053    3.0748 H   0  0  0  0  0  0  0  0  0  0  0  0
    2.5523    0.6272    1.8049 H   0  0  0  0  0  0  0  0  0  0  0  0
    3.6310    0.6579    3.1700 H   0  0  0  0  0  0  0  0  0  0  0  0
    2.4087   -1.8898    2.0419 H   0  0  0  0  0  0  0  0  0  0  0  0
    3.4652   -0.5240    0.0446 H   0  0  0  0  0  0  0  0  0  0  0  0
    4.3682   -3.8179    1.1549 H   0  0  0  0  0  0  0  0  0  0  0  0
    2.5427   -4.6598   -1.1154 H   0  0  0  0  0  0  0  0  0  0  0  0
    3.7587   -5.7891   -0.5227 H   0  0  0  0  0  0  0  0  0  0  0  0
    2.8693   -5.6766    1.5265 H   0  0  0  0  0  0  0  0  0  0  0  0
    5.9922   -4.6646   -0.3882 H   0  0  0  0  0  0  0  0  0  0  0  0
    4.6467   -4.6638   -2.2690 H   0  0  0  0  0  0  0  0  0  0  0  0
    6.5414   -2.6114    0.7167 H   0  0  0  0  0  0  0  0  0  0  0  0
    7.9841   -3.3190   -0.9738 H   0  0  0  0  0  0  0  0  0  0  0  0
    6.0195   -0.3840   -0.1157 H   0  0  0  0  0  0  0  0  0  0  0  0
    4.7131   -1.8105   -2.1966 H   0  0  0  0  0  0  0  0  0  0  0  0
    5.7670   -1.9680    3.6365 H   0  0  0  0  0  0  0  0  0  0  0  0
    5.2055   -2.0153    5.3759 H   0  0  0  0  0  0  0  0  0  0  0  0
    4.3989   -3.9389    3.1480 H   0  0  0  0  0  0  0  0  0  0  0  0
  1  2  1  0
  1 37  1  0
  1 38  1  0
  1 39  1  0
  2 36  1  0
  2  3  1  0
  2  4  1  0
  3 40  1  0
  3 41  1  0
  3 42  1  0
  4  5  1  0
  4 43  1  0
  4 44  1  0
  5 34  1  0
  5  6  2  0
  6 19  1  0
  6  7  1  0
  7  8  1  0
  7 45  1  0
  7 46  1  0
  8  9  1  0
  8 47  1  0
  8 48  1  0
  9 17  1  0
  9 10  1  0
  9 49  1  6
 10 11  1  0
 10 12  1  0
 10 13  1  0
 11 50  1  0
 11 51  1  0
 11 52  1  0
 12 53  1  0
 12 54  1  0
 12 55  1  0
 13 14  2  0
 13 15  1  0
 15 16  1  0
 15 56  1  0
 15 57  1  0
 16 17  1  0
 16 58  1  0
 16 59  1  0
 17 18  1  1
 17 19  1  0
 18 60  1  0
 18 61  1  0
 18 62  1  0
 19 20  1  0
 19 63  1  6
 20 21  1  0
 20 64  1  0
 20 65  1  0
 21 22  1  0
 21 34  1  0
 21 66  1  6
 22 23  1  0
 23 32  1  0
 23 24  1  0
 23 67  1  6
 24 25  1  0
 25 26  1  0
 25 28  1  0
 25 68  1  1
 26 27  1  0
 26 69  1  0
 26 70  1  0
 27 71  1  0
 28 29  1  0
 28 30  1  0
 28 72  1  1
 29 73  1  0
 30 31  1  0
 30 32  1  0
 30 74  1  1
 31 75  1  0
 32 33  1  0
 32 76  1  1
 33 77  1  0
 34 36  1  0
 34 35  1  1
 35 36  1  0
 35 78  1  0
 35 79  1  0
 36 80  1  6
M  END
>  <i_m_ct_stereo_status>  (47) 
1

>  <s_m_source_file>  (47) 
/var/tmp/pbs.5076255.sched01/tmpuvpulguu/0mmv31ww_.sdf

>  <i_m_source_file_index>  (47) 
26

>  <i_lp_mmshare_version>  (47) 
48012

>  <i_f3d_flags>  (47) 
0

>  <s_epik_input>  (47) 
W0NIMl0xW0NIMl1DKD1PKUMoW0NIM10pKFtDSDNdKVtDQEhdKFtDSDJdW0NIMl0yKVtDQEBdMShbQ0gzXSlbQ0BIXShDMj1DKFtDQEBdMzQ1KVtDSDJdQyhbQ0gzXSkoW0NIM10pW0NAQEhdNVtDSDJdNClbQ0gyXVtDQEhdM09bQ0BASF02T1tDQEBIXShbQ0gyXVtPSF0pW0NAQEhdKFtPSF0pW0NAQEhdKFtPSF0pW0NASF02W09IXQ==

>  <s_epik_cmdline>  (47) 
J2VwaWtfcHl0aG9uJywgJy1waHQnLCAnMi4wJywgJy1waCcsICc3LjAnLCAnLXRuJywgJzgnLCAnLW1hJywgJzIwMCcsICctaW1hZScsICc8aW5maWxlLm1hZT4nLCAnLW9tYWUnLCAnPG91dGZpbGUubWFlPic=

>  <r_lp_tautomer_probability>  (47) 
1

>  <r_epik_Ionization_Penalty>  (47) 
2.46947e-06

>  <r_epik_Ionization_Penalty_Charging>  (47) 
0

>  <r_epik_Ionization_Penalty_Neutral>  (47) 
2.46947e-06

>  <r_epik_State_Penalty>  (47) 
-0

>  <r_epik_Charging_Adjusted_Penalty>  (47) 
0

>  <i_epik_Tot_Q>  (47) 
0

>  <i_epik_Tot_abs_Q>  (47) 
0

>  <s_epik_Chemistry_Notes>  (47) 
This compound contains an acetal/aminal-like group ( X-CH(R)-Y where X, Y are N, S, or O) that may be acid/base labile, releasing an aldehyde.

>  <s_lp_Force_Field>  (47) 
OPLS3e

>  <r_lp_Energy>  (47) 
50.682

>  <b_lp_Chiralities_Consistent>  (47) 
1

>  <s_lp_Variant>  (47) 
13:0-1

>  <s_i_glide_gridfile>  (47) 
pfpi4k_grid

>  <i_i_glide_lignum>  (47) 
26

>  <i_i_glide_rotatable_bonds>  (47) 
7

>  <r_i_docking_score>  (47) 
-3.30708

>  <r_i_glide_ligand_efficiency>  (47) 
-0.0918634

>  <r_i_glide_ligand_efficiency_sa>  (47) 
-0.303326

>  <r_i_glide_ligand_efficiency_ln>  (47) 
-0.721516

>  <r_i_glide_gscore>  (47) 
-3.30708

>  <r_i_glide_lipo>  (47) 
-0.161493

>  <r_i_glide_hbond>  (47) 
-0.120081

>  <r_i_glide_metal>  (47) 
-0

>  <r_i_glide_rewards>  (47) 
-0.5

>  <r_i_glide_evdw>  (47) 
-23.1006

>  <r_i_glide_ecoul>  (47) 
-10.2315

>  <r_i_glide_erotb>  (47) 
0.240871

>  <r_i_glide_esite>  (47) 
-0.0766208

>  <r_i_glide_emodel>  (47) 
-43.7684

>  <r_i_glide_energy>  (47) 
-33.3321

>  <r_i_glide_einternal>  (47) 
3.71184

>  <r_i_glide_intrahb_reward>  (47) 
-0.5

>  <i_i_glide_confnum>  (47) 
4

>  <i_i_glide_posenum>  (47) 
17

>  <r_i_glide_eff_state_penalty>  (47) 
0

>  <ligand_id>  (47) 
13

>  <original_smiles>  (47) 
CC1(C)CC2=C3CCC4C(C)(C)C(=O)CCC4(C)C3CC(OC3OC(CO)C(O)C(O)C3O)C23CC13

>  <smiles>  (47) 
[H]OC([H])([H])C1([H])OC([H])(OC2([H])C([H])([H])C3([H])C(=C4C([H])([H])C(C([H])([H])[H])(C([H])([H])[H])C5([H])C([H])([H])C425)C([H])([H])C([H])([H])C2([H])C(C([H])([H])[H])(C([H])([H])[H])C(=O)C([H])([H])C([H])([H])C32C([H])([H])[H])C([H])(O[H])C([H])(O[H])C1([H])O[H]

$$$$
13:0:2
     RDKit          3D

 80 85  0  0  1  0  0  0  0  0999 V2000
    6.8542   -1.6175    6.7167 C   0  0  0  0  0  0  0  0  0  0  0  0
    5.3613   -1.8071    6.3761 C   0  0  0  0  0  0  0  0  0  0  0  0
    4.7906   -2.9579    7.2164 C   0  0  0  0  0  0  0  0  0  0  0  0
    4.5186   -0.5225    6.6074 C   0  0  0  0  0  0  0  0  0  0  0  0
    3.4732   -0.5175    5.5004 C   0  0  0  0  0  0  0  0  0  0  0  0
    2.2174   -0.0178    5.5415 C   0  0  0  0  0  0  0  0  0  0  0  0
    1.6278    0.6509    6.7691 C   0  0  0  0  0  0  0  0  0  0  0  0
    0.8531    1.9317    6.4292 C   0  0  0  0  0  0  0  0  0  0  0  0
   -0.1754    1.7045    5.2887 C   0  0  1  0  0  0  0  0  0  0  0  0
   -1.2344    2.8638    5.1390 C   0  0  0  0  0  0  0  0  0  0  0  0
   -2.1998    2.8136    6.3587 C   0  0  0  0  0  0  0  0  0  0  0  0
   -0.6204    4.2789    5.1070 C   0  0  0  0  0  0  0  0  0  0  0  0
   -2.0642    2.6579    3.8563 C   0  0  0  0  0  0  0  0  0  0  0  0
   -3.2619    2.9464    3.8157 O   0  0  0  0  0  0  0  0  0  0  0  0
   -1.3593    2.1541    2.6126 C   0  0  0  0  0  0  0  0  0  0  0  0
   -0.5253    0.9128    2.9136 C   0  0  0  0  0  0  0  0  0  0  0  0
    0.5531    1.1713    4.0000 C   0  0  1  0  0  0  0  0  0  0  0  0
    1.6096    2.1677    3.4398 C   0  0  0  0  0  0  0  0  0  0  0  0
    1.2557   -0.1820    4.3596 C   0  0  1  0  0  0  0  0  0  0  0  0
    1.8901   -0.9189    3.1445 C   0  0  0  0  0  0  0  0  0  0  0  0
    2.9129   -1.9910    3.5521 C   0  0  1  0  0  0  0  0  0  0  0  0
    3.4733   -2.5073    2.3450 O   0  0  0  0  0  0  0  0  0  0  0  0
    2.8269   -3.6645    1.8181 C   0  0  2  0  0  0  0  0  0  0  0  0
    3.2224   -4.8970    2.4157 O   0  0  0  0  0  0  0  0  0  0  0  0
    4.6111   -5.2388    2.2551 C   0  0  1  0  0  0  0  0  0  0  0  0
    4.8722   -6.5573    3.0188 C   0  0  0  0  0  0  0  0  0  0  0  0
    4.7543   -6.3899    4.4280 O   0  0  0  0  0  0  0  0  0  0  0  0
    4.9263   -5.3630    0.7377 C   0  0  1  0  0  0  0  0  0  0  0  0
    4.3054   -6.5068    0.1631 O   0  0  0  0  0  0  0  0  0  0  0  0
    4.4912   -4.0779   -0.0169 C   0  0  1  0  0  0  0  0  0  0  0  0
    4.7492   -4.1732   -1.4231 O   0  0  0  0  0  0  0  0  0  0  0  0
    3.0229   -3.7185    0.2784 C   0  0  1  0  0  0  0  0  0  0  0  0
    2.1168   -4.6812   -0.2820 O   0  0  0  0  0  0  0  0  0  0  0  0
    3.9916   -1.3338    4.3880 C   0  0  1  0  0  0  0  0  0  0  0  0
    5.3661   -1.0432    3.8191 C   0  0  0  0  0  0  0  0  0  0  0  0
    5.1701   -2.0987    4.8897 C   0  0  1  0  0  0  0  0  0  0  0  0
    7.0161   -1.3730    7.7736 H   0  0  0  0  0  0  0  0  0  0  0  0
    7.2972   -0.8115    6.1301 H   0  0  0  0  0  0  0  0  0  0  0  0
    7.4121   -2.5233    6.4942 H   0  0  0  0  0  0  0  0  0  0  0  0
    3.7361   -3.1006    7.0017 H   0  0  0  0  0  0  0  0  0  0  0  0
    4.8842   -2.7408    8.2803 H   0  0  0  0  0  0  0  0  0  0  0  0
    5.3016   -3.8961    7.0252 H   0  0  0  0  0  0  0  0  0  0  0  0
    4.1022   -0.4652    7.6173 H   0  0  0  0  0  0  0  0  0  0  0  0
    5.1408    0.3604    6.4337 H   0  0  0  0  0  0  0  0  0  0  0  0
    0.9419   -0.0716    7.2124 H   0  0  0  0  0  0  0  0  0  0  0  0
    2.3955    0.8856    7.5135 H   0  0  0  0  0  0  0  0  0  0  0  0
    0.3664    2.2964    7.3358 H   0  0  0  0  0  0  0  0  0  0  0  0
    1.5755    2.7079    6.1499 H   0  0  0  0  0  0  0  0  0  0  0  0
   -0.7701    0.8534    5.6238 H   0  0  0  0  0  0  0  0  0  0  0  0
   -1.6979    3.0068    7.3098 H   0  0  0  0  0  0  0  0  0  0  0  0
   -2.6864    1.8371    6.4386 H   0  0  0  0  0  0  0  0  0  0  0  0
   -2.9920    3.5591    6.2759 H   0  0  0  0  0  0  0  0  0  0  0  0
    0.0742    4.4581    5.9267 H   0  0  0  0  0  0  0  0  0  0  0  0
   -1.3953    5.0331    5.1955 H   0  0  0  0  0  0  0  0  0  0  0  0
   -0.1154    4.4935    4.1675 H   0  0  0  0  0  0  0  0  0  0  0  0
   -2.1072    1.9335    1.8554 H   0  0  0  0  0  0  0  0  0  0  0  0
   -0.7206    2.9394    2.2249 H   0  0  0  0  0  0  0  0  0  0  0  0
   -1.2035    0.1289    3.2469 H   0  0  0  0  0  0  0  0  0  0  0  0
   -0.0877    0.5686    1.9785 H   0  0  0  0  0  0  0  0  0  0  0  0
    1.9593    1.8730    2.4543 H   0  0  0  0  0  0  0  0  0  0  0  0
    2.4839    2.2450    4.0832 H   0  0  0  0  0  0  0  0  0  0  0  0
    1.2188    3.1693    3.3135 H   0  0  0  0  0  0  0  0  0  0  0  0
    0.4956   -0.8530    4.7452 H   0  0  0  0  0  0  0  0  0  0  0  0
    1.1142   -1.3601    2.5184 H   0  0  0  0  0  0  0  0  0  0  0  0
    2.4321   -0.2213    2.5050 H   0  0  0  0  0  0  0  0  0  0  0  0
    2.4510   -2.7878    4.1461 H   0  0  0  0  0  0  0  0  0  0  0  0
    1.7621   -3.5878    2.0534 H   0  0  0  0  0  0  0  0  0  0  0  0
    5.2429   -4.4354    2.6699 H   0  0  0  0  0  0  0  0  0  0  0  0
    4.2037   -7.3638    2.7080 H   0  0  0  0  0  0  0  0  0  0  0  0
    5.8787   -6.9062    2.8005 H   0  0  0  0  0  0  0  0  0  0  0  0
    5.4648   -5.8076    4.7297 H   0  0  0  0  0  0  0  0  0  0  0  0
    6.0046   -5.4743    0.6273 H   0  0  0  0  0  0  0  0  0  0  0  0
    3.3478   -6.3546    0.2060 H   0  0  0  0  0  0  0  0  0  0  0  0
    5.1107   -3.2687    0.3843 H   0  0  0  0  0  0  0  0  0  0  0  0
    4.3243   -4.9849   -1.7559 H   0  0  0  0  0  0  0  0  0  0  0  0
    2.7995   -2.7243   -0.1364 H   0  0  0  0  0  0  0  0  0  0  0  0
    2.3059   -4.7633   -1.2327 H   0  0  0  0  0  0  0  0  0  0  0  0
    5.6065   -1.4101    2.8292 H   0  0  0  0  0  0  0  0  0  0  0  0
    5.8640   -0.1160    4.0914 H   0  0  0  0  0  0  0  0  0  0  0  0
    5.3110   -3.1232    4.5885 H   0  0  0  0  0  0  0  0  0  0  0  0
  1  2  1  0
  1 37  1  0
  1 38  1  0
  1 39  1  0
  2 36  1  0
  2  3  1  0
  2  4  1  0
  3 40  1  0
  3 41  1  0
  3 42  1  0
  4  5  1  0
  4 43  1  0
  4 44  1  0
  5 34  1  0
  5  6  2  0
  6 19  1  0
  6  7  1  0
  7  8  1  0
  7 45  1  0
  7 46  1  0
  8  9  1  0
  8 47  1  0
  8 48  1  0
  9 17  1  0
  9 10  1  0
  9 49  1  1
 10 11  1  0
 10 12  1  0
 10 13  1  0
 11 50  1  0
 11 51  1  0
 11 52  1  0
 12 53  1  0
 12 54  1  0
 12 55  1  0
 13 14  2  0
 13 15  1  0
 15 16  1  0
 15 56  1  0
 15 57  1  0
 16 17  1  0
 16 58  1  0
 16 59  1  0
 17 18  1  6
 17 19  1  0
 18 60  1  0
 18 61  1  0
 18 62  1  0
 19 20  1  0
 19 63  1  1
 20 21  1  0
 20 64  1  0
 20 65  1  0
 21 22  1  0
 21 34  1  0
 21 66  1  1
 22 23  1  0
 23 32  1  0
 23 24  1  0
 23 67  1  6
 24 25  1  0
 25 26  1  0
 25 28  1  0
 25 68  1  1
 26 27  1  0
 26 69  1  0
 26 70  1  0
 27 71  1  0
 28 29  1  0
 28 30  1  0
 28 72  1  1
 29 73  1  0
 30 31  1  0
 30 32  1  0
 30 74  1  1
 31 75  1  0
 32 33  1  0
 32 76  1  6
 33 77  1  0
 34 36  1  0
 34 35  1  6
 35 36  1  0
 35 78  1  0
 35 79  1  0
 36 80  1  6
M  END
>  <i_m_ct_stereo_status>  (48) 
1

>  <s_m_source_file>  (48) 
/var/tmp/pbs.5076255.sched01/tmpuvpulguu/0mmv31ww_.sdf

>  <i_m_source_file_index>  (48) 
26

>  <i_lp_mmshare_version>  (48) 
48012

>  <i_f3d_flags>  (48) 
0

>  <s_epik_input>  (48) 
W0NIMl0xW0NIMl1DKD1PKUMoW0NIM10pKFtDSDNdKVtDQEhdKFtDSDJdW0NIMl0yKVtDQEBdMShbQ0gzXSlbQ0BIXShDMj1DKFtDQEBdMzQ1KVtDSDJdQyhbQ0gzXSkoW0NIM10pW0NAQEhdNVtDSDJdNClbQ0gyXVtDQEhdM09bQ0BASF02T1tDQEBIXShbQ0gyXVtPSF0pW0NAQEhdKFtPSF0pW0NAQEhdKFtPSF0pW0NASF02W09IXQ==

>  <s_epik_cmdline>  (48) 
J2VwaWtfcHl0aG9uJywgJy1waHQnLCAnMi4wJywgJy1waCcsICc3LjAnLCAnLXRuJywgJzgnLCAnLW1hJywgJzIwMCcsICctaW1hZScsICc8aW5maWxlLm1hZT4nLCAnLW9tYWUnLCAnPG91dGZpbGUubWFlPic=

>  <r_lp_tautomer_probability>  (48) 
1

>  <r_epik_Ionization_Penalty>  (48) 
2.46947e-06

>  <r_epik_Ionization_Penalty_Charging>  (48) 
0

>  <r_epik_Ionization_Penalty_Neutral>  (48) 
2.46947e-06

>  <r_epik_State_Penalty>  (48) 
-0

>  <r_epik_Charging_Adjusted_Penalty>  (48) 
0

>  <i_epik_Tot_Q>  (48) 
0

>  <i_epik_Tot_abs_Q>  (48) 
0

>  <s_epik_Chemistry_Notes>  (48) 
This compound contains an acetal/aminal-like group ( X-CH(R)-Y where X, Y are N, S, or O) that may be acid/base labile, releasing an aldehyde.

>  <s_lp_Force_Field>  (48) 
OPLS3e

>  <r_lp_Energy>  (48) 
50.682

>  <b_lp_Chiralities_Consistent>  (48) 
1

>  <s_lp_Variant>  (48) 
13:0-1

>  <s_i_glide_gridfile>  (48) 
pfpi4k_grid

>  <i_i_glide_lignum>  (48) 
26

>  <i_i_glide_rotatable_bonds>  (48) 
7

>  <r_i_docking_score>  (48) 
-2.96697

>  <r_i_glide_ligand_efficiency>  (48) 
-0.0824157

>  <r_i_glide_ligand_efficiency_sa>  (48) 
-0.272131

>  <r_i_glide_ligand_efficiency_ln>  (48) 
-0.647312

>  <r_i_glide_gscore>  (48) 
-2.96697

>  <r_i_glide_lipo>  (48) 
-0.352636

>  <r_i_glide_hbond>  (48) 
0

>  <r_i_glide_metal>  (48) 
-0

>  <r_i_glide_rewards>  (48) 
-0.5

>  <r_i_glide_evdw>  (48) 
-22.656

>  <r_i_glide_ecoul>  (48) 
-7.90093

>  <r_i_glide_erotb>  (48) 
0.240871

>  <r_i_glide_esite>  (48) 
-0.0372616

>  <r_i_glide_emodel>  (48) 
-39.9586

>  <r_i_glide_energy>  (48) 
-30.5569

>  <r_i_glide_einternal>  (48) 
4.46855

>  <r_i_glide_intrahb_reward>  (48) 
-0.5

>  <i_i_glide_confnum>  (48) 
4

>  <i_i_glide_posenum>  (48) 
21

>  <r_i_glide_eff_state_penalty>  (48) 
0

>  <ligand_id>  (48) 
13

>  <original_smiles>  (48) 
CC1(C)CC2=C3CCC4C(C)(C)C(=O)CCC4(C)C3CC(OC3OC(CO)C(O)C(O)C3O)C23CC13

>  <smiles>  (48) 
[H]OC([H])([H])C1([H])OC([H])(OC2([H])C([H])([H])C3([H])C(=C4C([H])([H])C(C([H])([H])[H])(C([H])([H])[H])C5([H])C([H])([H])C425)C([H])([H])C([H])([H])C2([H])C(C([H])([H])[H])(C([H])([H])[H])C(=O)C([H])([H])C([H])([H])C32C([H])([H])[H])C([H])(O[H])C([H])(O[H])C1([H])O[H]

$$$$
14:0:0
     RDKit          3D

 74 79  0  0  1  0  0  0  0  0999 V2000
   -1.3245   -7.2329    4.1000 C   0  0  0  0  0  0  0  0  0  0  0  0
    0.2141   -7.1962    4.1323 C   0  0  2  0  0  0  0  0  0  0  0  0
    0.7084   -6.3376    5.3154 C   0  0  0  0  0  0  0  0  0  0  0  0
    2.0548   -5.6308    5.0620 C   0  0  0  0  0  0  0  0  0  0  0  0
    3.0823   -6.4447    4.2249 C   0  0  1  0  0  0  0  0  0  0  0  0
    3.4109   -7.7164    5.0739 C   0  0  0  0  0  0  0  0  0  0  0  0
    2.4161   -6.9045    2.8854 C   0  0  2  0  0  0  0  0  0  0  0  0
    3.1860   -6.2224    1.7435 C   0  0  0  0  0  0  0  0  0  0  0  0
    4.6034   -5.9187    2.2849 C   0  0  1  0  0  0  0  0  0  0  0  0
    5.4400   -7.2081    2.0466 C   0  0  0  0  0  0  0  0  0  0  0  0
    5.3111   -4.7028    1.5891 C   0  0  1  0  0  0  0  0  0  0  0  0
    5.8935   -4.8767    0.1750 C   0  0  0  0  0  0  0  0  0  0  0  0
    6.9356   -3.7749   -0.1113 C   0  0  0  0  0  0  0  0  0  0  0  0
    6.4548   -2.3335    0.1840 C   0  0  1  0  0  0  0  0  0  0  0  0
    5.7352   -1.7153   -1.0310 C   0  0  0  0  0  0  0  0  0  0  0  0
    5.7199   -2.2387    1.5522 C   0  0  1  0  0  0  0  0  0  0  0  0
    5.3956   -0.8024    1.9959 C   0  0  0  0  0  0  0  0  0  0  0  0
    3.9882   -0.2771    1.6883 C   0  0  0  0  0  0  0  0  0  0  0  0
    2.8913   -1.2950    2.0562 C   0  0  1  0  0  0  0  0  0  0  0  0
    1.5704   -0.5538    2.3408 C   0  0  0  0  0  0  0  0  0  0  0  0
    2.5681   -2.1836    0.9763 O   0  0  0  0  0  0  0  0  0  0  0  0
    3.7148   -3.1090    0.5988 O   0  0  0  0  0  0  0  0  0  0  0  0
    4.5923   -3.3167    1.6946 C   0  0  1  0  0  0  0  0  0  0  0  0
    3.6935   -3.2934    2.9478 C   0  0  1  0  0  0  0  0  0  0  0  0
    4.3262   -4.0652    4.0960 C   0  0  0  0  0  0  0  0  0  0  0  0
    4.3992   -5.6261    3.8293 C   0  0  1  0  0  0  0  0  0  0  0  0
    5.6488   -6.0409    4.6732 C   0  0  0  0  0  0  0  0  0  0  0  0
    3.2990   -1.9618    3.2534 O   0  0  0  0  0  0  0  0  0  0  0  0
    0.8644   -6.7159    2.8109 C   0  0  1  0  0  0  0  0  0  0  0  0
    0.2824   -7.4484    1.5930 C   0  0  0  0  0  0  0  0  0  0  0  0
   -1.7485   -6.2658    3.8619 H   0  0  0  0  0  0  0  0  0  0  0  0
   -1.7050   -7.5211    5.0747 H   0  0  0  0  0  0  0  0  0  0  0  0
   -1.7183   -7.9663    3.3938 H   0  0  0  0  0  0  0  0  0  0  0  0
    0.5270   -8.2267    4.2952 H   0  0  0  0  0  0  0  0  0  0  0  0
   -0.0469   -5.5998    5.5914 H   0  0  0  0  0  0  0  0  0  0  0  0
    0.8004   -6.9852    6.1824 H   0  0  0  0  0  0  0  0  0  0  0  0
    1.8140   -4.7086    4.5378 H   0  0  0  0  0  0  0  0  0  0  0  0
    2.4854   -5.3376    6.0211 H   0  0  0  0  0  0  0  0  0  0  0  0
    4.1204   -8.3813    4.5867 H   0  0  0  0  0  0  0  0  0  0  0  0
    2.5351   -8.3274    5.2644 H   0  0  0  0  0  0  0  0  0  0  0  0
    3.8167   -7.4562    6.0524 H   0  0  0  0  0  0  0  0  0  0  0  0
    2.6097   -7.9726    2.7825 H   0  0  0  0  0  0  0  0  0  0  0  0
    3.2151   -6.8638    0.8602 H   0  0  0  0  0  0  0  0  0  0  0  0
    2.6649   -5.3329    1.4157 H   0  0  0  0  0  0  0  0  0  0  0  0
    6.4933   -7.0686    2.3030 H   0  0  0  0  0  0  0  0  0  0  0  0
    5.4021   -7.5209    1.0026 H   0  0  0  0  0  0  0  0  0  0  0  0
    5.0651   -8.0551    2.6197 H   0  0  0  0  0  0  0  0  0  0  0  0
    6.2078   -4.6302    2.2018 H   0  0  0  0  0  0  0  0  0  0  0  0
    6.4159   -5.8294    0.0754 H   0  0  0  0  0  0  0  0  0  0  0  0
    5.1108   -4.8653   -0.5823 H   0  0  0  0  0  0  0  0  0  0  0  0
    7.8289   -3.9690    0.4888 H   0  0  0  0  0  0  0  0  0  0  0  0
    7.2556   -3.8452   -1.1494 H   0  0  0  0  0  0  0  0  0  0  0  0
    7.3609   -1.7419    0.2851 H   0  0  0  0  0  0  0  0  0  0  0  0
    4.8517   -2.2756   -1.3310 H   0  0  0  0  0  0  0  0  0  0  0  0
    6.3960   -1.7001   -1.8973 H   0  0  0  0  0  0  0  0  0  0  0  0
    5.4384   -0.6863   -0.8401 H   0  0  0  0  0  0  0  0  0  0  0  0
    6.4881   -2.5174    2.2704 H   0  0  0  0  0  0  0  0  0  0  0  0
    5.5361   -0.7531    3.0743 H   0  0  0  0  0  0  0  0  0  0  0  0
    6.1394   -0.1239    1.5879 H   0  0  0  0  0  0  0  0  0  0  0  0
    3.8515    0.6162    2.2918 H   0  0  0  0  0  0  0  0  0  0  0  0
    3.8800    0.0433    0.6545 H   0  0  0  0  0  0  0  0  0  0  0  0
    0.7727   -1.2688    2.5406 H   0  0  0  0  0  0  0  0  0  0  0  0
    1.2600    0.0385    1.4787 H   0  0  0  0  0  0  0  0  0  0  0  0
    1.6439    0.1157    3.1939 H   0  0  0  0  0  0  0  0  0  0  0  0
    2.7313   -3.7725    2.7544 H   0  0  0  0  0  0  0  0  0  0  0  0
    5.3296   -3.6449    4.2423 H   0  0  0  0  0  0  0  0  0  0  0  0
    3.8227   -3.8393    5.0236 H   0  0  0  0  0  0  0  0  0  0  0  0
    6.5431   -5.5118    4.3509 H   0  0  0  0  0  0  0  0  0  0  0  0
    5.8983   -7.0980    4.6176 H   0  0  0  0  0  0  0  0  0  0  0  0
    5.5022   -5.8039    5.7280 H   0  0  0  0  0  0  0  0  0  0  0  0
    0.6502   -5.6530    2.6928 H   0  0  0  0  0  0  0  0  0  0  0  0
    0.3469   -8.5276    1.7245 H   0  0  0  0  0  0  0  0  0  0  0  0
    0.7960   -7.1918    0.6660 H   0  0  0  0  0  0  0  0  0  0  0  0
   -0.7667   -7.2018    1.4438 H   0  0  0  0  0  0  0  0  0  0  0  0
  1  2  1  0
  1 31  1  0
  1 32  1  0
  1 33  1  0
  2 29  1  0
  2  3  1  0
  2 34  1  1
  3  4  1  0
  3 35  1  0
  3 36  1  0
  4  5  1  0
  4 37  1  0
  4 38  1  0
  5 26  1  0
  5  6  1  1
  5  7  1  0
  6 39  1  0
  6 40  1  0
  6 41  1  0
  7  8  1  0
  7 29  1  0
  7 42  1  6
  8  9  1  0
  8 43  1  0
  8 44  1  0
  9 26  1  0
  9 10  1  1
  9 11  1  0
 10 45  1  0
 10 46  1  0
 10 47  1  0
 11 23  1  0
 11 12  1  0
 11 48  1  1
 12 13  1  0
 12 49  1  0
 12 50  1  0
 13 14  1  0
 13 51  1  0
 13 52  1  0
 14 15  1  0
 14 16  1  0
 14 53  1  1
 15 54  1  0
 15 55  1  0
 15 56  1  0
 16 23  1  0
 16 17  1  0
 16 57  1  1
 17 18  1  0
 17 58  1  0
 17 59  1  0
 18 19  1  0
 18 60  1  0
 18 61  1  0
 19 28  1  0
 19 20  1  1
 19 21  1  0
 20 62  1  0
 20 63  1  0
 20 64  1  0
 21 22  1  0
 23 22  1  6
 23 24  1  0
 24 25  1  0
 24 28  1  0
 24 65  1  6
 25 26  1  0
 25 66  1  0
 25 67  1  0
 26 27  1  1
 27 68  1  0
 27 69  1  0
 27 70  1  0
 29 30  1  0
 29 71  1  6
 30 72  1  0
 30 73  1  0
 30 74  1  0
M  END
>  <i_m_ct_stereo_status>  (49) 
1

>  <s_m_source_file>  (49) 
/var/tmp/pbs.5076255.sched01/tmpuvpulguu/0mmv31ww_.sdf

>  <i_m_source_file_index>  (49) 
27

>  <i_lp_mmshare_version>  (49) 
48012

>  <i_f3d_flags>  (49) 
0

>  <s_epik_input>  (49) 
W0NIMl0xW0NIMl1bQ0BASF0oW0NIM10pW0NASF0oW0NIM10pW0NAQEhdKFtDSDJdMilbQ0BAXTEoW0NIM10pW0NAQF0oW0NIM10pKFtDQF0yKFtDSDNdKVtDQEBIXTNbQ0BAXTQ1NilbQ0gyXVtDQEhdNk9bQ0BdKFtDSDNdKShPTzUpW0NIMl1bQ0gyXVtDQEBIXTRbQ0BIXShbQ0gzXSlbQ0gyXVtDSDJdMw==

>  <s_epik_cmdline>  (49) 
J2VwaWtfcHl0aG9uJywgJy1waHQnLCAnMi4wJywgJy1waCcsICc3LjAnLCAnLXRuJywgJzgnLCAnLW1hJywgJzIwMCcsICctaW1hZScsICc8aW5maWxlLm1hZT4nLCAnLW9tYWUnLCAnPG91dGZpbGUubWFlPic=

>  <r_lp_tautomer_probability>  (49) 
1

>  <r_epik_Ionization_Penalty>  (49) 
3.18371e-14

>  <r_epik_Ionization_Penalty_Charging>  (49) 
0

>  <r_epik_Ionization_Penalty_Neutral>  (49) 
3.18371e-14

>  <r_epik_State_Penalty>  (49) 
-0

>  <r_epik_Charging_Adjusted_Penalty>  (49) 
0

>  <i_epik_Tot_Q>  (49) 
0

>  <i_epik_Tot_abs_Q>  (49) 
0

>  <s_lp_Force_Field>  (49) 
OPLS3e

>  <r_lp_Energy>  (49) 
97.712

>  <b_lp_Chiralities_Consistent>  (49) 
1

>  <s_lp_Variant>  (49) 
14:0-1

>  <s_i_glide_gridfile>  (49) 
pfpi4k_grid

>  <i_i_glide_lignum>  (49) 
27

>  <i_i_glide_rotatable_bonds>  (49) 
0

>  <r_i_docking_score>  (49) 
-2.55521

>  <r_i_glide_ligand_efficiency>  (49) 
-0.0851737

>  <r_i_glide_ligand_efficiency_sa>  (49) 
-0.264655

>  <r_i_glide_ligand_efficiency_ln>  (49) 
-0.580572

>  <r_i_glide_gscore>  (49) 
-2.55521

>  <r_i_glide_lipo>  (49) 
-0.648356

>  <r_i_glide_hbond>  (49) 
0

>  <r_i_glide_metal>  (49) 
-0

>  <r_i_glide_rewards>  (49) 
-0.568388

>  <r_i_glide_evdw>  (49) 
-28.3448

>  <r_i_glide_ecoul>  (49) 
0.672034

>  <r_i_glide_erotb>  (49) 
0

>  <r_i_glide_esite>  (49) 
-0.0220336

>  <r_i_glide_emodel>  (49) 
-31.8474

>  <r_i_glide_energy>  (49) 
-27.6727

>  <r_i_glide_einternal>  (49) 
0

>  <r_i_glide_intrahb_reward>  (49) 
-0

>  <i_i_glide_confnum>  (49) 
1

>  <i_i_glide_posenum>  (49) 
14

>  <r_i_glide_eff_state_penalty>  (49) 
0

>  <ligand_id>  (49) 
14

>  <original_smiles>  (49) 
CC1CCC2(C)C(CC3(C)C4CCC(C)C5CCC6(C)OOC54C(CC23C)O6)C1C

>  <smiles>  (49) 
[H]C([H])([H])C12OOC34C([H])(O1)C([H])([H])C1(C([H])([H])[H])C5(C([H])([H])[H])C([H])([H])C([H])([H])C([H])(C([H])([H])[H])C([H])(C([H])([H])[H])C5([H])C([H])([H])C1(C([H])([H])[H])C3([H])C([H])([H])C([H])([H])C([H])(C([H])([H])[H])C4([H])C([H])([H])C2([H])[H]

$$$$
14:0:1
     RDKit          3D

 74 79  0  0  1  0  0  0  0  0999 V2000
   -1.1698   -7.6353    4.3146 C   0  0  0  0  0  0  0  0  0  0  0  0
    0.3324   -7.5867    3.9721 C   0  0  2  0  0  0  0  0  0  0  0  0
    1.1370   -7.0623    5.1808 C   0  0  0  0  0  0  0  0  0  0  0  0
    2.4143   -6.2865    4.8021 C   0  0  0  0  0  0  0  0  0  0  0  0
    3.1773   -6.8359    3.5640 C   0  0  1  0  0  0  0  0  0  0  0  0
    3.6381   -8.2781    3.9511 C   0  0  0  0  0  0  0  0  0  0  0  0
    2.1960   -6.9425    2.3481 C   0  0  2  0  0  0  0  0  0  0  0  0
    2.7002   -5.9634    1.2763 C   0  0  0  0  0  0  0  0  0  0  0  0
    4.2135   -5.7880    1.5221 C   0  0  1  0  0  0  0  0  0  0  0  0
    4.9085   -6.9573    0.7734 C   0  0  0  0  0  0  0  0  0  0  0  0
    4.7907   -4.4210    1.0071 C   0  0  1  0  0  0  0  0  0  0  0  0
    5.0149   -4.2130   -0.5042 C   0  0  0  0  0  0  0  0  0  0  0  0
    6.0150   -3.0624   -0.7418 C   0  0  0  0  0  0  0  0  0  0  0  0
    5.6868   -1.7584    0.0311 C   0  0  1  0  0  0  0  0  0  0  0  0
    4.7277   -0.8613   -0.7708 C   0  0  0  0  0  0  0  0  0  0  0  0
    5.3007   -2.0334    1.5153 C   0  0  1  0  0  0  0  0  0  0  0  0
    5.1528   -0.7638    2.3777 C   0  0  0  0  0  0  0  0  0  0  0  0
    3.7341   -0.2100    2.5610 C   0  0  0  0  0  0  0  0  0  0  0  0
    2.7067   -1.2999    2.9132 C   0  0  1  0  0  0  0  0  0  0  0  0
    1.5271   -0.6844    3.6824 C   0  0  0  0  0  0  0  0  0  0  0  0
    2.0873   -1.8788    1.7595 O   0  0  0  0  0  0  0  0  0  0  0  0
    3.0711   -2.6507    0.8842 O   0  0  0  0  0  0  0  0  0  0  0  0
    4.1817   -3.1233    1.6399 C   0  0  1  0  0  0  0  0  0  0  0  0
    3.6100   -3.4445    3.0382 C   0  0  1  0  0  0  0  0  0  0  0  0
    4.4601   -4.4814    3.7608 C   0  0  0  0  0  0  0  0  0  0  0  0
    4.3979   -5.9150    3.0900 C   0  0  1  0  0  0  0  0  0  0  0  0
    5.7910   -6.5146    3.4730 C   0  0  0  0  0  0  0  0  0  0  0  0
    3.3548   -2.2502    3.7626 O   0  0  0  0  0  0  0  0  0  0  0  0
    0.6834   -6.7738    2.6990 C   0  0  1  0  0  0  0  0  0  0  0  0
   -0.1923   -7.1734    1.5037 C   0  0  0  0  0  0  0  0  0  0  0  0
   -1.5968   -6.6412    4.4366 H   0  0  0  0  0  0  0  0  0  0  0  0
   -1.3178   -8.1776    5.2471 H   0  0  0  0  0  0  0  0  0  0  0  0
   -1.7493   -8.1714    3.5618 H   0  0  0  0  0  0  0  0  0  0  0  0
    0.6264   -8.6216    3.7866 H   0  0  0  0  0  0  0  0  0  0  0  0
    0.5039   -6.4333    5.8102 H   0  0  0  0  0  0  0  0  0  0  0  0
    1.3992   -7.9122    5.8045 H   0  0  0  0  0  0  0  0  0  0  0  0
    2.0974   -5.2650    4.6088 H   0  0  0  0  0  0  0  0  0  0  0  0
    3.0705   -6.2466    5.6726 H   0  0  0  0  0  0  0  0  0  0  0  0
    4.1808   -8.7815    3.1541 H   0  0  0  0  0  0  0  0  0  0  0  0
    2.8045   -8.9342    4.1817 H   0  0  0  0  0  0  0  0  0  0  0  0
    4.2742   -8.2765    4.8367 H   0  0  0  0  0  0  0  0  0  0  0  0
    2.3130   -7.9430    1.9276 H   0  0  0  0  0  0  0  0  0  0  0  0
    2.4913   -6.3298    0.2710 H   0  0  0  0  0  0  0  0  0  0  0  0
    2.1600   -5.0283    1.3316 H   0  0  0  0  0  0  0  0  0  0  0  0
    5.9971   -6.8683    0.8039 H   0  0  0  0  0  0  0  0  0  0  0  0
    4.6161   -6.9874   -0.2766 H   0  0  0  0  0  0  0  0  0  0  0  0
    4.6418   -7.9331    1.1777 H   0  0  0  0  0  0  0  0  0  0  0  0
    5.8102   -4.4953    1.3854 H   0  0  0  0  0  0  0  0  0  0  0  0
    5.4391   -5.1011   -0.9720 H   0  0  0  0  0  0  0  0  0  0  0  0
    4.0770   -4.0153   -1.0179 H   0  0  0  0  0  0  0  0  0  0  0  0
    7.0144   -3.3917   -0.4445 H   0  0  0  0  0  0  0  0  0  0  0  0
    6.0770   -2.8557   -1.8096 H   0  0  0  0  0  0  0  0  0  0  0  0
    6.6131   -1.1903    0.0655 H   0  0  0  0  0  0  0  0  0  0  0  0
    3.7713   -1.3329   -0.9924 H   0  0  0  0  0  0  0  0  0  0  0  0
    5.1724   -0.5836   -1.7260 H   0  0  0  0  0  0  0  0  0  0  0  0
    4.5335    0.0690   -0.2442 H   0  0  0  0  0  0  0  0  0  0  0  0
    6.2032   -2.4761    1.9388 H   0  0  0  0  0  0  0  0  0  0  0  0
    5.5431   -0.9967    3.3684 H   0  0  0  0  0  0  0  0  0  0  0  0
    5.8091    0.0193    2.0043 H   0  0  0  0  0  0  0  0  0  0  0  0
    3.7955    0.5013    3.3843 H   0  0  0  0  0  0  0  0  0  0  0  0
    3.4040    0.3721    1.7009 H   0  0  0  0  0  0  0  0  0  0  0  0
    0.7673   -1.4416    3.8770 H   0  0  0  0  0  0  0  0  0  0  0  0
    1.0492    0.1076    3.1018 H   0  0  0  0  0  0  0  0  0  0  0  0
    1.8310   -0.2604    4.6362 H   0  0  0  0  0  0  0  0  0  0  0  0
    2.6119   -3.8776    2.9640 H   0  0  0  0  0  0  0  0  0  0  0  0
    5.4863   -4.0954    3.7632 H   0  0  0  0  0  0  0  0  0  0  0  0
    4.2030   -4.5141    4.8091 H   0  0  0  0  0  0  0  0  0  0  0  0
    6.6083   -5.9044    3.0934 H   0  0  0  0  0  0  0  0  0  0  0  0
    5.9726   -7.5160    3.0894 H   0  0  0  0  0  0  0  0  0  0  0  0
    5.9096   -6.5650    4.5561 H   0  0  0  0  0  0  0  0  0  0  0  0
    0.4949   -5.7222    2.9109 H   0  0  0  0  0  0  0  0  0  0  0  0
   -0.1554   -8.2434    1.3209 H   0  0  0  0  0  0  0  0  0  0  0  0
    0.0899   -6.6664    0.5802 H   0  0  0  0  0  0  0  0  0  0  0  0
   -1.2303   -6.9220    1.6980 H   0  0  0  0  0  0  0  0  0  0  0  0
  1  2  1  0
  1 31  1  0
  1 32  1  0
  1 33  1  0
  2 29  1  0
  2  3  1  0
  2 34  1  6
  3  4  1  0
  3 35  1  0
  3 36  1  0
  4  5  1  0
  4 37  1  0
  4 38  1  0
  5 26  1  0
  5  6  1  1
  5  7  1  0
  6 39  1  0
  6 40  1  0
  6 41  1  0
  7  8  1  0
  7 29  1  0
  7 42  1  6
  8  9  1  0
  8 43  1  0
  8 44  1  0
  9 26  1  0
  9 10  1  6
  9 11  1  0
 10 45  1  0
 10 46  1  0
 10 47  1  0
 11 23  1  0
 11 12  1  0
 11 48  1  1
 12 13  1  0
 12 49  1  0
 12 50  1  0
 13 14  1  0
 13 51  1  0
 13 52  1  0
 14 15  1  0
 14 16  1  0
 14 53  1  1
 15 54  1  0
 15 55  1  0
 15 56  1  0
 16 23  1  0
 16 17  1  0
 16 57  1  1
 17 18  1  0
 17 58  1  0
 17 59  1  0
 18 19  1  0
 18 60  1  0
 18 61  1  0
 19 28  1  0
 19 20  1  1
 19 21  1  0
 20 62  1  0
 20 63  1  0
 20 64  1  0
 21 22  1  0
 23 22  1  6
 23 24  1  0
 24 25  1  0
 24 28  1  0
 24 65  1  6
 25 26  1  0
 25 66  1  0
 25 67  1  0
 26 27  1  6
 27 68  1  0
 27 69  1  0
 27 70  1  0
 29 30  1  0
 29 71  1  1
 30 72  1  0
 30 73  1  0
 30 74  1  0
M  END
>  <i_m_ct_stereo_status>  (50) 
1

>  <s_m_source_file>  (50) 
/var/tmp/pbs.5076255.sched01/tmpuvpulguu/0mmv31ww_.sdf

>  <i_m_source_file_index>  (50) 
27

>  <i_lp_mmshare_version>  (50) 
48012

>  <i_f3d_flags>  (50) 
0

>  <s_epik_input>  (50) 
W0NIMl0xW0NIMl1bQ0BASF0oW0NIM10pW0NASF0oW0NIM10pW0NAQEhdKFtDSDJdMilbQ0BAXTEoW0NIM10pW0NAQF0oW0NIM10pKFtDQF0yKFtDSDNdKVtDQEBIXTNbQ0BAXTQ1NilbQ0gyXVtDQEhdNk9bQ0BdKFtDSDNdKShPTzUpW0NIMl1bQ0gyXVtDQEBIXTRbQ0BIXShbQ0gzXSlbQ0gyXVtDSDJdMw==

>  <s_epik_cmdline>  (50) 
J2VwaWtfcHl0aG9uJywgJy1waHQnLCAnMi4wJywgJy1waCcsICc3LjAnLCAnLXRuJywgJzgnLCAnLW1hJywgJzIwMCcsICctaW1hZScsICc8aW5maWxlLm1hZT4nLCAnLW9tYWUnLCAnPG91dGZpbGUubWFlPic=

>  <r_lp_tautomer_probability>  (50) 
1

>  <r_epik_Ionization_Penalty>  (50) 
3.18371e-14

>  <r_epik_Ionization_Penalty_Charging>  (50) 
0

>  <r_epik_Ionization_Penalty_Neutral>  (50) 
3.18371e-14

>  <r_epik_State_Penalty>  (50) 
-0

>  <r_epik_Charging_Adjusted_Penalty>  (50) 
0

>  <i_epik_Tot_Q>  (50) 
0

>  <i_epik_Tot_abs_Q>  (50) 
0

>  <s_lp_Force_Field>  (50) 
OPLS3e

>  <r_lp_Energy>  (50) 
97.712

>  <b_lp_Chiralities_Consistent>  (50) 
1

>  <s_lp_Variant>  (50) 
14:0-1

>  <s_i_glide_gridfile>  (50) 
pfpi4k_grid

>  <i_i_glide_lignum>  (50) 
27

>  <i_i_glide_rotatable_bonds>  (50) 
0

>  <r_i_docking_score>  (50) 
-2.42357

>  <r_i_glide_ligand_efficiency>  (50) 
-0.0807857

>  <r_i_glide_ligand_efficiency_sa>  (50) 
-0.25102

>  <r_i_glide_ligand_efficiency_ln>  (50) 
-0.550662

>  <r_i_glide_gscore>  (50) 
-2.42357

>  <r_i_glide_lipo>  (50) 
-0.494414

>  <r_i_glide_hbond>  (50) 
0

>  <r_i_glide_metal>  (50) 
-0

>  <r_i_glide_rewards>  (50) 
-0.568388

>  <r_i_glide_evdw>  (50) 
-30.269

>  <r_i_glide_ecoul>  (50) 
1.05579

>  <r_i_glide_erotb>  (50) 
0

>  <r_i_glide_esite>  (50) 
-0.00568839

>  <r_i_glide_emodel>  (50) 
-33.1997

>  <r_i_glide_energy>  (50) 
-29.2132

>  <r_i_glide_einternal>  (50) 
0

>  <r_i_glide_intrahb_reward>  (50) 
-0

>  <i_i_glide_confnum>  (50) 
1

>  <i_i_glide_posenum>  (50) 
10

>  <r_i_glide_eff_state_penalty>  (50) 
0

>  <ligand_id>  (50) 
14

>  <original_smiles>  (50) 
CC1CCC2(C)C(CC3(C)C4CCC(C)C5CCC6(C)OOC54C(CC23C)O6)C1C

>  <smiles>  (50) 
[H]C([H])([H])C12OOC34C([H])(O1)C([H])([H])C1(C([H])([H])[H])C5(C([H])([H])[H])C([H])([H])C([H])([H])C([H])(C([H])([H])[H])C([H])(C([H])([H])[H])C5([H])C([H])([H])C1(C([H])([H])[H])C3([H])C([H])([H])C([H])([H])C([H])(C([H])([H])[H])C4([H])C([H])([H])C2([H])[H]

$$$$
14:0:2
     RDKit          3D

 74 79  0  0  1  0  0  0  0  0999 V2000
    4.3219   -0.0607    2.8565 C   0  0  0  0  0  0  0  0  0  0  0  0
    3.7771   -1.0145    3.9327 C   0  0  2  0  0  0  0  0  0  0  0  0
    4.9289   -1.8466    4.5340 C   0  0  0  0  0  0  0  0  0  0  0  0
    4.5129   -3.2557    5.0013 C   0  0  0  0  0  0  0  0  0  0  0  0
    3.1050   -3.3374    5.6538 C   0  0  1  0  0  0  0  0  0  0  0  0
    3.1662   -2.4436    6.9320 C   0  0  0  0  0  0  0  0  0  0  0  0
    2.0415   -2.7296    4.6756 C   0  0  2  0  0  0  0  0  0  0  0  0
    1.0867   -3.8661    4.2816 C   0  0  0  0  0  0  0  0  0  0  0  0
    1.1400   -4.9027    5.4242 C   0  0  1  0  0  0  0  0  0  0  0  0
    0.1034   -4.4333    6.4859 C   0  0  0  0  0  0  0  0  0  0  0  0
    0.7983   -6.3698    4.9725 C   0  0  1  0  0  0  0  0  0  0  0  0
   -0.6706   -6.7500    4.7008 C   0  0  0  0  0  0  0  0  0  0  0  0
   -0.8410   -8.2809    4.7586 C   0  0  0  0  0  0  0  0  0  0  0  0
    0.1782   -9.0888    3.9246 C   0  0  1  0  0  0  0  0  0  0  0  0
   -0.3114   -9.2910    2.4836 C   0  0  0  0  0  0  0  0  0  0  0  0
    1.6307   -8.5545    4.0988 C   0  0  1  0  0  0  0  0  0  0  0  0
    2.7120   -9.4378    3.4394 C   0  0  0  0  0  0  0  0  0  0  0  0
    3.1912   -9.0212    2.0424 C   0  0  0  0  0  0  0  0  0  0  0  0
    3.4934   -7.5191    1.9339 C   0  0  1  0  0  0  0  0  0  0  0  0
    4.5328   -7.2511    0.8342 C   0  0  0  0  0  0  0  0  0  0  0  0
    2.3500   -6.7586    1.5176 O   0  0  0  0  0  0  0  0  0  0  0  0
    1.2241   -6.7479    2.5626 O   0  0  0  0  0  0  0  0  0  0  0  0
    1.7221   -7.0062    3.8764 C   0  0  1  0  0  0  0  0  0  0  0  0
    3.1149   -6.3353    3.9139 C   0  0  1  0  0  0  0  0  0  0  0  0
    3.5187   -5.9719    5.3444 C   0  0  0  0  0  0  0  0  0  0  0  0
    2.6244   -4.8302    5.9810 C   0  0  1  0  0  0  0  0  0  0  0  0
    2.6963   -5.1679    7.5051 C   0  0  0  0  0  0  0  0  0  0  0  0
    4.0546   -7.0903    3.1783 O   0  0  0  0  0  0  0  0  0  0  0  0
    2.6194   -1.9277    3.4629 C   0  0  1  0  0  0  0  0  0  0  0  0
    1.5129   -1.1410    2.7303 C   0  0  0  0  0  0  0  0  0  0  0  0
    4.6619   -0.5988    1.9724 H   0  0  0  0  0  0  0  0  0  0  0  0
    5.1692    0.5022    3.2503 H   0  0  0  0  0  0  0  0  0  0  0  0
    3.5786    0.6757    2.5432 H   0  0  0  0  0  0  0  0  0  0  0  0
    3.3781   -0.3778    4.7168 H   0  0  0  0  0  0  0  0  0  0  0  0
    5.7289   -1.9473    3.8003 H   0  0  0  0  0  0  0  0  0  0  0  0
    5.3655   -1.2897    5.3643 H   0  0  0  0  0  0  0  0  0  0  0  0
    4.5475   -3.8909    4.1176 H   0  0  0  0  0  0  0  0  0  0  0  0
    5.2750   -3.6338    5.6825 H   0  0  0  0  0  0  0  0  0  0  0  0
    2.2236   -2.4114    7.4757 H   0  0  0  0  0  0  0  0  0  0  0  0
    3.3970   -1.4054    6.7031 H   0  0  0  0  0  0  0  0  0  0  0  0
    3.9392   -2.7800    7.6243 H   0  0  0  0  0  0  0  0  0  0  0  0
    1.4419   -2.0238    5.2516 H   0  0  0  0  0  0  0  0  0  0  0  0
    0.0799   -3.4837    4.1162 H   0  0  0  0  0  0  0  0  0  0  0  0
    1.3752   -4.2790    3.3216 H   0  0  0  0  0  0  0  0  0  0  0  0
   -0.0083   -5.1567    7.2963 H   0  0  0  0  0  0  0  0  0  0  0  0
   -0.8853   -4.2872    6.0503 H   0  0  0  0  0  0  0  0  0  0  0  0
    0.3747   -3.4753    6.9264 H   0  0  0  0  0  0  0  0  0  0  0  0
    1.0123   -6.9066    5.9004 H   0  0  0  0  0  0  0  0  0  0  0  0
   -1.3376   -6.3302    5.4512 H   0  0  0  0  0  0  0  0  0  0  0  0
   -1.0009   -6.3683    3.7388 H   0  0  0  0  0  0  0  0  0  0  0  0
   -0.7397   -8.6214    5.7911 H   0  0  0  0  0  0  0  0  0  0  0  0
   -1.8553   -8.5498    4.4618 H   0  0  0  0  0  0  0  0  0  0  0  0
    0.1705  -10.0961    4.3462 H   0  0  0  0  0  0  0  0  0  0  0  0
   -0.4705   -8.3593    1.9417 H   0  0  0  0  0  0  0  0  0  0  0  0
   -1.2574   -9.8329    2.4745 H   0  0  0  0  0  0  0  0  0  0  0  0
    0.3972   -9.9034    1.9326 H   0  0  0  0  0  0  0  0  0  0  0  0
    1.8391   -8.7217    5.1568 H   0  0  0  0  0  0  0  0  0  0  0  0
    3.5838   -9.4322    4.0967 H   0  0  0  0  0  0  0  0  0  0  0  0
    2.3951  -10.4802    3.4290 H   0  0  0  0  0  0  0  0  0  0  0  0
    4.1095   -9.5856    1.8593 H   0  0  0  0  0  0  0  0  0  0  0  0
    2.5004   -9.3424    1.2612 H   0  0  0  0  0  0  0  0  0  0  0  0
    4.6970   -6.1766    0.7161 H   0  0  0  0  0  0  0  0  0  0  0  0
    4.2133   -7.6328   -0.1390 H   0  0  0  0  0  0  0  0  0  0  0  0
    5.4939   -7.7186    1.0541 H   0  0  0  0  0  0  0  0  0  0  0  0
    3.1070   -5.3963    3.3698 H   0  0  0  0  0  0  0  0  0  0  0  0
    3.4390   -6.8951    5.9208 H   0  0  0  0  0  0  0  0  0  0  0  0
    4.5791   -5.7452    5.3935 H   0  0  0  0  0  0  0  0  0  0  0  0
    2.3146   -6.1686    7.7135 H   0  0  0  0  0  0  0  0  0  0  0  0
    2.1237   -4.4986    8.1435 H   0  0  0  0  0  0  0  0  0  0  0  0
    3.7269   -5.1417    7.8619 H   0  0  0  0  0  0  0  0  0  0  0  0
    3.0291   -2.6367    2.7472 H   0  0  0  0  0  0  0  0  0  0  0  0
    1.1398   -0.3167    3.3361 H   0  0  0  0  0  0  0  0  0  0  0  0
    0.6673   -1.7771    2.4691 H   0  0  0  0  0  0  0  0  0  0  0  0
    1.8840   -0.7231    1.7936 H   0  0  0  0  0  0  0  0  0  0  0  0
  1  2  1  0
  1 31  1  0
  1 32  1  0
  1 33  1  0
  2 29  1  0
  2  3  1  0
  2 34  1  1
  3  4  1  0
  3 35  1  0
  3 36  1  0
  4  5  1  0
  4 37  1  0
  4 38  1  0
  5 26  1  0
  5  6  1  1
  5  7  1  0
  6 39  1  0
  6 40  1  0
  6 41  1  0
  7  8  1  0
  7 29  1  0
  7 42  1  1
  8  9  1  0
  8 43  1  0
  8 44  1  0
  9 26  1  0
  9 10  1  1
  9 11  1  0
 10 45  1  0
 10 46  1  0
 10 47  1  0
 11 23  1  0
 11 12  1  0
 11 48  1  1
 12 13  1  0
 12 49  1  0
 12 50  1  0
 13 14  1  0
 13 51  1  0
 13 52  1  0
 14 15  1  0
 14 16  1  0
 14 53  1  1
 15 54  1  0
 15 55  1  0
 15 56  1  0
 16 23  1  0
 16 17  1  0
 16 57  1  1
 17 18  1  0
 17 58  1  0
 17 59  1  0
 18 19  1  0
 18 60  1  0
 18 61  1  0
 19 28  1  0
 19 20  1  6
 19 21  1  0
 20 62  1  0
 20 63  1  0
 20 64  1  0
 21 22  1  0
 23 22  1  6
 23 24  1  0
 24 25  1  0
 24 28  1  0
 24 65  1  6
 25 26  1  0
 25 66  1  0
 25 67  1  0
 26 27  1  1
 27 68  1  0
 27 69  1  0
 27 70  1  0
 29 30  1  0
 29 71  1  6
 30 72  1  0
 30 73  1  0
 30 74  1  0
M  END
>  <i_m_ct_stereo_status>  (51) 
1

>  <s_m_source_file>  (51) 
/var/tmp/pbs.5076255.sched01/tmpuvpulguu/0mmv31ww_.sdf

>  <i_m_source_file_index>  (51) 
27

>  <i_lp_mmshare_version>  (51) 
48012

>  <i_f3d_flags>  (51) 
0

>  <s_epik_input>  (51) 
W0NIMl0xW0NIMl1bQ0BASF0oW0NIM10pW0NASF0oW0NIM10pW0NAQEhdKFtDSDJdMilbQ0BAXTEoW0NIM10pW0NAQF0oW0NIM10pKFtDQF0yKFtDSDNdKVtDQEBIXTNbQ0BAXTQ1NilbQ0gyXVtDQEhdNk9bQ0BdKFtDSDNdKShPTzUpW0NIMl1bQ0gyXVtDQEBIXTRbQ0BIXShbQ0gzXSlbQ0gyXVtDSDJdMw==

>  <s_epik_cmdline>  (51) 
J2VwaWtfcHl0aG9uJywgJy1waHQnLCAnMi4wJywgJy1waCcsICc3LjAnLCAnLXRuJywgJzgnLCAnLW1hJywgJzIwMCcsICctaW1hZScsICc8aW5maWxlLm1hZT4nLCAnLW9tYWUnLCAnPG91dGZpbGUubWFlPic=

>  <r_lp_tautomer_probability>  (51) 
1

>  <r_epik_Ionization_Penalty>  (51) 
3.18371e-14

>  <r_epik_Ionization_Penalty_Charging>  (51) 
0

>  <r_epik_Ionization_Penalty_Neutral>  (51) 
3.18371e-14

>  <r_epik_State_Penalty>  (51) 
-0

>  <r_epik_Charging_Adjusted_Penalty>  (51) 
0

>  <i_epik_Tot_Q>  (51) 
0

>  <i_epik_Tot_abs_Q>  (51) 
0

>  <s_lp_Force_Field>  (51) 
OPLS3e

>  <r_lp_Energy>  (51) 
97.712

>  <b_lp_Chiralities_Consistent>  (51) 
1

>  <s_lp_Variant>  (51) 
14:0-1

>  <s_i_glide_gridfile>  (51) 
pfpi4k_grid

>  <i_i_glide_lignum>  (51) 
27

>  <i_i_glide_rotatable_bonds>  (51) 
0

>  <r_i_docking_score>  (51) 
-2.15646

>  <r_i_glide_ligand_efficiency>  (51) 
-0.0718821

>  <r_i_glide_ligand_efficiency_sa>  (51) 
-0.223354

>  <r_i_glide_ligand_efficiency_ln>  (51) 
-0.489972

>  <r_i_glide_gscore>  (51) 
-2.15646

>  <r_i_glide_lipo>  (51) 
-0.219251

>  <r_i_glide_hbond>  (51) 
0

>  <r_i_glide_metal>  (51) 
-0

>  <r_i_glide_rewards>  (51) 
-0.599215

>  <r_i_glide_evdw>  (51) 
-24.7213

>  <r_i_glide_ecoul>  (51) 
-0.679524

>  <r_i_glide_erotb>  (51) 
0

>  <r_i_glide_esite>  (51) 
0

>  <r_i_glide_emodel>  (51) 
-28.9478

>  <r_i_glide_energy>  (51) 
-25.4009

>  <r_i_glide_einternal>  (51) 
0

>  <r_i_glide_intrahb_reward>  (51) 
-0

>  <i_i_glide_confnum>  (51) 
1

>  <i_i_glide_posenum>  (51) 
2

>  <r_i_glide_eff_state_penalty>  (51) 
0

>  <ligand_id>  (51) 
14

>  <original_smiles>  (51) 
CC1CCC2(C)C(CC3(C)C4CCC(C)C5CCC6(C)OOC54C(CC23C)O6)C1C

>  <smiles>  (51) 
[H]C([H])([H])C12OOC34C([H])(O1)C([H])([H])C1(C([H])([H])[H])C5(C([H])([H])[H])C([H])([H])C([H])([H])C([H])(C([H])([H])[H])C([H])(C([H])([H])[H])C5([H])C([H])([H])C1(C([H])([H])[H])C3([H])C([H])([H])C([H])([H])C([H])(C([H])([H])[H])C4([H])C([H])([H])C2([H])[H]

$$$$
17:0:0
     RDKit          3D

 54 57  0  0  1  0  0  0  0  0999 V2000
   -1.7152   -9.1537    3.2611 C   0  0  0  0  0  0  0  0  0  0  0  0
   -0.4859   -8.3331    3.6781 C   0  0  2  0  0  0  0  0  0  0  0  0
   -0.8823   -6.8261    3.7727 C   0  0  0  0  0  0  0  0  0  0  0  0
    0.2891   -5.7961    3.7977 C   0  0  0  0  0  0  0  0  0  0  0  0
    1.5846   -6.5383    4.0901 C   0  0  2  0  0  0  0  0  0  0  0  0
    2.9624   -5.9404    4.3892 C   0  0  0  0  0  0  0  0  0  0  0  0
    3.8785   -6.9752    3.9442 O   0  0  0  0  0  0  0  0  0  0  0  0
    3.1449   -8.1382    3.5975 C   0  0  2  0  0  0  0  0  0  0  0  0
    2.9683   -8.9975    4.7109 O   0  0  0  0  0  0  0  0  0  0  0  0
    3.6668   -8.8541    2.3531 C   0  0  1  0  0  0  0  0  0  0  0  0
    5.1572   -9.2113    2.4388 C   0  0  0  0  0  0  0  0  0  0  0  0
    2.7363  -10.0754    2.0533 C   0  0  0  0  0  0  0  0  0  0  0  0
    1.2673   -9.9980    2.5872 C   0  0  0  0  0  0  0  0  0  0  0  0
    0.7138   -8.5625    2.7181 C   0  0  2  0  0  0  0  0  0  0  0  0
    1.8756   -7.5700    3.0295 C   0  0  1  0  0  0  0  0  0  0  0  0
    2.4053   -7.1036    1.6314 C   0  0  1  0  0  0  0  0  0  0  0  0
    2.8430   -5.7785    1.5804 O   0  0  0  0  0  0  0  0  0  0  0  0
    2.4019   -5.0930    0.5153 C   0  0  0  0  0  0  0  0  0  0  0  0
    1.4442   -5.4661   -0.1923 O   0  0  0  0  0  0  0  0  0  0  0  0
    3.1122   -3.7642    0.2875 C   0  0  0  0  0  0  0  0  0  0  0  0
    3.3593   -3.3789   -1.1908 C   0  0  0  0  0  0  0  0  0  0  0  0
    2.1531   -3.4145   -2.1736 C   0  0  0  0  0  0  0  0  0  0  0  0
    2.5614   -3.3370   -3.5443 N   0  0  0  0  0  0  0  0  0  0  0  0
    3.4466   -7.9613    1.2840 O   0  0  0  0  0  0  0  0  0  0  0  0
   -2.0878   -8.8955    2.2692 H   0  0  0  0  0  0  0  0  0  0  0  0
   -2.5350   -9.0231    3.9714 H   0  0  0  0  0  0  0  0  0  0  0  0
   -1.4605  -10.2120    3.2510 H   0  0  0  0  0  0  0  0  0  0  0  0
   -0.1996   -8.6839    4.6682 H   0  0  0  0  0  0  0  0  0  0  0  0
   -1.5855   -6.6152    2.9704 H   0  0  0  0  0  0  0  0  0  0  0  0
   -1.4514   -6.6955    4.6948 H   0  0  0  0  0  0  0  0  0  0  0  0
    0.3752   -5.3268    2.8198 H   0  0  0  0  0  0  0  0  0  0  0  0
    0.1146   -5.0026    4.5257 H   0  0  0  0  0  0  0  0  0  0  0  0
    1.3663   -7.0704    5.0194 H   0  0  0  0  0  0  0  0  0  0  0  0
    3.1314   -4.9924    3.8732 H   0  0  0  0  0  0  0  0  0  0  0  0
    3.0842   -5.7413    5.4530 H   0  0  0  0  0  0  0  0  0  0  0  0
    2.4461   -9.7285    4.4245 H   0  0  0  0  0  0  0  0  0  0  0  0
    5.3367   -9.8989    3.2605 H   0  0  0  0  0  0  0  0  0  0  0  0
    5.7805   -8.3295    2.5986 H   0  0  0  0  0  0  0  0  0  0  0  0
    5.4989   -9.6976    1.5247 H   0  0  0  0  0  0  0  0  0  0  0  0
    2.7303  -10.2217    0.9720 H   0  0  0  0  0  0  0  0  0  0  0  0
    3.1953  -10.9711    2.4612 H   0  0  0  0  0  0  0  0  0  0  0  0
    0.6279  -10.5598    1.9077 H   0  0  0  0  0  0  0  0  0  0  0  0
    1.1783  -10.5260    3.5361 H   0  0  0  0  0  0  0  0  0  0  0  0
    0.2637   -8.3335    1.7515 H   0  0  0  0  0  0  0  0  0  0  0  0
    1.6785   -7.3639    0.8698 H   0  0  0  0  0  0  0  0  0  0  0  0
    2.5808   -2.9586    0.8119 H   0  0  0  0  0  0  0  0  0  0  0  0
    4.0925   -3.8245    0.7794 H   0  0  0  0  0  0  0  0  0  0  0  0
    3.7682   -2.3646   -1.1963 H   0  0  0  0  0  0  0  0  0  0  0  0
    4.1737   -4.0056   -1.5741 H   0  0  0  0  0  0  0  0  0  0  0  0
    1.5878   -4.3331   -2.1492 H   0  0  0  0  0  0  0  0  0  0  0  0
    1.4295   -2.6459   -1.9236 H   0  0  0  0  0  0  0  0  0  0  0  0
    1.7327   -3.4635   -4.1100 H   0  0  0  0  0  0  0  0  0  0  0  0
    3.1792   -4.1317   -3.7119 H   0  0  0  0  0  0  0  0  0  0  0  0
    3.0222   -2.4618   -3.7764 H   0  0  0  0  0  0  0  0  0  0  0  0
  1  2  1  0
  1 25  1  0
  1 26  1  0
  1 27  1  0
  2 14  1  0
  2  3  1  0
  2 28  1  1
  3  4  1  0
  3 29  1  0
  3 30  1  0
  4  5  1  0
  4 31  1  0
  4 32  1  0
  5 15  1  0
  5  6  1  0
  5 33  1  1
  6  7  1  0
  6 34  1  0
  6 35  1  0
  7  8  1  0
 15  8  1  1
  8  9  1  1
  8 10  1  0
  9 36  1  0
 10 24  1  0
 10 11  1  1
 10 12  1  0
 11 37  1  0
 11 38  1  0
 11 39  1  0
 12 13  1  0
 12 40  1  0
 12 41  1  0
 13 14  1  0
 13 42  1  0
 13 43  1  0
 14 15  1  0
 14 44  1  6
 15 16  1  0
 16 17  1  0
 16 24  1  0
 16 45  1  6
 17 18  1  0
 18 19  2  0
 18 20  1  0
 20 21  1  0
 20 46  1  0
 20 47  1  0
 21 22  1  0
 21 48  1  0
 21 49  1  0
 22 23  1  0
 22 50  1  0
 22 51  1  0
 23 52  1  0
 23 53  1  0
 23 54  1  0
M  CHG  1  23   1
M  END
>  <i_m_ct_stereo_status>  (52) 
1

>  <s_m_source_file>  (52) 
/var/tmp/pbs.5076255.sched01/tmpuvpulguu/0mmv31ww_.sdf

>  <i_m_source_file_index>  (52) 
30

>  <i_lp_mmshare_version>  (52) 
48012

>  <i_f3d_flags>  (52) 
0

>  <s_epik_input>  (52) 
W0NAXTEyM1tDQEBIXTRbQ0gyXVtDSDJdW0NAQEhdKFtDSDNdKVtDQEBIXTJbQ0gyXVtDSDJdW0NAXShbQ0gzXSkoW0NAQF0xKFtPSF0pT1tDSDJdNClPW0NAQEhdM09DKD1PKVtDSDJdW0NIMl1bQ0gyXVtOSDJd

>  <s_epik_cmdline>  (52) 
J2VwaWtfcHl0aG9uJywgJy1waHQnLCAnMi4wJywgJy1waCcsICc3LjAnLCAnLXRuJywgJzgnLCAnLW1hJywgJzIwMCcsICctaW1hZScsICc8aW5maWxlLm1hZT4nLCAnLW9tYWUnLCAnPG91dGZpbGUubWFlPic=

>  <r_epik_Ionization_Penalty>  (52) 
0.00120804

>  <r_epik_Ionization_Penalty_Charging>  (52) 
0.00120744

>  <r_epik_Ionization_Penalty_Neutral>  (52) 
5.96131e-07

>  <r_epik_State_Penalty>  (52) 
0.000797162

>  <r_epik_Charging_Adjusted_Penalty>  (52) 
0.00200461

>  <i_epik_Tot_Q>  (52) 
1

>  <i_epik_Tot_abs_Q>  (52) 
1

>  <s_epik_Chemistry_Notes>  (52) 
This compound has an ester and may undergo hydrolysis at high or low pH. This compound contains an acetal/aminal-like group ( X-CH(R)-Y where X, Y are N, S, or O) that may be acid/base labile, releasing an aldehyde.

>  <s_lp_Force_Field>  (52) 
OPLS3e

>  <r_lp_Energy>  (52) 
55.5535

>  <b_lp_Chiralities_Consistent>  (52) 
1

>  <s_lp_Variant>  (52) 
17:0-1

>  <s_i_glide_gridfile>  (52) 
pfpi4k_grid

>  <i_i_glide_lignum>  (52) 
30

>  <i_i_glide_rotatable_bonds>  (52) 
6

>  <r_i_docking_score>  (52) 
-3.24264

>  <r_i_glide_ligand_efficiency>  (52) 
-0.13511

>  <r_i_glide_ligand_efficiency_sa>  (52) 
-0.389725

>  <r_i_glide_ligand_efficiency_ln>  (52) 
-0.776113

>  <r_i_glide_gscore>  (52) 
-3.24264

>  <r_i_glide_lipo>  (52) 
-0.430282

>  <r_i_glide_hbond>  (52) 
-0.191541

>  <r_i_glide_metal>  (52) 
-0

>  <r_i_glide_rewards>  (52) 
-1.08795

>  <r_i_glide_evdw>  (52) 
-18.865

>  <r_i_glide_ecoul>  (52) 
-7.8967

>  <r_i_glide_erotb>  (52) 
0.653599

>  <r_i_glide_esite>  (52) 
-0.0587157

>  <r_i_glide_emodel>  (52) 
-27.4035

>  <r_i_glide_energy>  (52) 
-26.7617

>  <r_i_glide_einternal>  (52) 
7.51603

>  <r_i_glide_intrahb_reward>  (52) 
-0

>  <i_i_glide_confnum>  (52) 
5

>  <i_i_glide_posenum>  (52) 
7

>  <r_i_glide_eff_state_penalty>  (52) 
0

>  <ligand_id>  (52) 
17

>  <original_smiles>  (52) 
CC1CCC2COC3(O)C4(C)CCC1C23C(OC(=O)CCCN)O4

>  <smiles>  (52) 
[H]OC12OC([H])([H])C3([H])C([H])([H])C([H])([H])C([H])(C([H])([H])[H])C4([H])C([H])([H])C([H])([H])C1(C([H])([H])[H])OC([H])(OC(=O)C([H])([H])C([H])([H])C([H])([H])[N+]([H])([H])[H])C234

$$$$
17:0:1
     RDKit          3D

 54 57  0  0  1  0  0  0  0  0999 V2000
   -1.5986   -9.1451    2.6883 C   0  0  0  0  0  0  0  0  0  0  0  0
   -0.4720   -8.3326    3.3530 C   0  0  2  0  0  0  0  0  0  0  0  0
   -0.7417   -6.8061    3.1309 C   0  0  0  0  0  0  0  0  0  0  0  0
    0.4497   -5.8388    3.4050 C   0  0  0  0  0  0  0  0  0  0  0  0
    1.5161   -6.6021    4.1700 C   0  0  2  0  0  0  0  0  0  0  0  0
    2.7902   -6.0419    4.8205 C   0  0  0  0  0  0  0  0  0  0  0  0
    3.6968   -7.1750    4.8029 O   0  0  0  0  0  0  0  0  0  0  0  0
    2.9938   -8.3258    4.3986 C   0  0  2  0  0  0  0  0  0  0  0  0
    2.4025   -9.0044    5.5059 O   0  0  0  0  0  0  0  0  0  0  0  0
    3.8014   -9.2334    3.4706 C   0  0  1  0  0  0  0  0  0  0  0  0
    5.1487   -9.6564    4.0912 C   0  0  0  0  0  0  0  0  0  0  0  0
    2.9058  -10.4484    3.0698 C   0  0  0  0  0  0  0  0  0  0  0  0
    1.3553  -10.2182    3.0869 C   0  0  0  0  0  0  0  0  0  0  0  0
    0.9305   -8.7521    2.8438 C   0  0  2  0  0  0  0  0  0  0  0  0
    2.0126   -7.7849    3.3739 C   0  0  1  0  0  0  0  0  0  0  0  0
    2.9775   -7.5258    2.1496 C   0  0  1  0  0  0  0  0  0  0  0  0
    3.4404   -6.2083    2.0853 O   0  0  0  0  0  0  0  0  0  0  0  0
    4.1990   -5.8952    1.0109 C   0  0  0  0  0  0  0  0  0  0  0  0
    4.5142   -6.6520    0.0923 O   0  0  0  0  0  0  0  0  0  0  0  0
    4.6473   -4.4268    1.0364 C   0  0  0  0  0  0  0  0  0  0  0  0
    4.8412   -3.7814   -0.3597 C   0  0  0  0  0  0  0  0  0  0  0  0
    3.5366   -3.3125   -1.0131 C   0  0  0  0  0  0  0  0  0  0  0  0
    3.0198   -2.1052   -0.3300 N   0  0  0  0  0  0  0  0  0  0  0  0
    4.0130   -8.4614    2.2833 O   0  0  0  0  0  0  0  0  0  0  0  0
   -1.6213   -9.0085    1.6028 H   0  0  0  0  0  0  0  0  0  0  0  0
   -2.5731   -8.8488    3.0840 H   0  0  0  0  0  0  0  0  0  0  0  0
   -1.4790  -10.2142    2.8801 H   0  0  0  0  0  0  0  0  0  0  0  0
   -0.5396   -8.5447    4.4223 H   0  0  0  0  0  0  0  0  0  0  0  0
   -1.1279   -6.6704    2.1179 H   0  0  0  0  0  0  0  0  0  0  0  0
   -1.5502   -6.5309    3.8070 H   0  0  0  0  0  0  0  0  0  0  0  0
    0.8664   -5.5133    2.4586 H   0  0  0  0  0  0  0  0  0  0  0  0
    0.1491   -4.9489    3.9579 H   0  0  0  0  0  0  0  0  0  0  0  0
    0.9815   -6.9834    5.0381 H   0  0  0  0  0  0  0  0  0  0  0  0
    3.1997   -5.1860    4.2842 H   0  0  0  0  0  0  0  0  0  0  0  0
    2.5927   -5.7011    5.8377 H   0  0  0  0  0  0  0  0  0  0  0  0
    3.0907   -9.5034    5.9320 H   0  0  0  0  0  0  0  0  0  0  0  0
    5.0070  -10.2320    5.0059 H   0  0  0  0  0  0  0  0  0  0  0  0
    5.7690   -8.7952    4.3321 H   0  0  0  0  0  0  0  0  0  0  0  0
    5.7125  -10.2827    3.3994 H   0  0  0  0  0  0  0  0  0  0  0  0
    3.2161  -10.7974    2.0838 H   0  0  0  0  0  0  0  0  0  0  0  0
    3.1078  -11.2903    3.7293 H   0  0  0  0  0  0  0  0  0  0  0  0
    0.8953  -10.8334    2.3193 H   0  0  0  0  0  0  0  0  0  0  0  0
    0.9331  -10.5789    4.0291 H   0  0  0  0  0  0  0  0  0  0  0  0
    0.8380   -8.6379    1.7608 H   0  0  0  0  0  0  0  0  0  0  0  0
    2.5161   -7.7421    1.1873 H   0  0  0  0  0  0  0  0  0  0  0  0
    3.9319   -3.8465    1.6228 H   0  0  0  0  0  0  0  0  0  0  0  0
    5.5873   -4.3957    1.5887 H   0  0  0  0  0  0  0  0  0  0  0  0
    5.5520   -2.9552   -0.2676 H   0  0  0  0  0  0  0  0  0  0  0  0
    5.3415   -4.4876   -1.0324 H   0  0  0  0  0  0  0  0  0  0  0  0
    3.7289   -3.0726   -2.0495 H   0  0  0  0  0  0  0  0  0  0  0  0
    2.8037   -4.1120   -1.0108 H   0  0  0  0  0  0  0  0  0  0  0  0
    2.1240   -1.7690   -0.7040 H   0  0  0  0  0  0  0  0  0  0  0  0
    3.6826   -1.3634   -0.3978 H   0  0  0  0  0  0  0  0  0  0  0  0
    2.8494   -2.3206    0.6336 H   0  0  0  0  0  0  0  0  0  0  0  0
  1  2  1  0
  1 25  1  0
  1 26  1  0
  1 27  1  0
  2 14  1  0
  2  3  1  0
  2 28  1  1
  3  4  1  0
  3 29  1  0
  3 30  1  0
  4  5  1  0
  4 31  1  0
  4 32  1  0
  5 15  1  0
  5  6  1  0
  5 33  1  1
  6  7  1  0
  6 34  1  0
  6 35  1  0
  7  8  1  0
 15  8  1  1
  8  9  1  1
  8 10  1  0
  9 36  1  0
 10 24  1  0
 10 11  1  1
 10 12  1  0
 11 37  1  0
 11 38  1  0
 11 39  1  0
 12 13  1  0
 12 40  1  0
 12 41  1  0
 13 14  1  0
 13 42  1  0
 13 43  1  0
 14 15  1  0
 14 44  1  6
 15 16  1  0
 16 17  1  0
 16 24  1  0
 16 45  1  6
 17 18  1  0
 18 19  2  0
 18 20  1  0
 20 21  1  0
 20 46  1  0
 20 47  1  0
 21 22  1  0
 21 48  1  0
 21 49  1  0
 22 23  1  0
 22 50  1  0
 22 51  1  0
 23 52  1  0
 23 53  1  0
 23 54  1  0
M  CHG  1  23   1
M  END
>  <i_m_ct_stereo_status>  (53) 
1

>  <s_m_source_file>  (53) 
/var/tmp/pbs.5076255.sched01/tmpuvpulguu/0mmv31ww_.sdf

>  <i_m_source_file_index>  (53) 
30

>  <i_lp_mmshare_version>  (53) 
48012

>  <i_f3d_flags>  (53) 
0

>  <s_epik_input>  (53) 
W0NAXTEyM1tDQEBIXTRbQ0gyXVtDSDJdW0NAQEhdKFtDSDNdKVtDQEBIXTJbQ0gyXVtDSDJdW0NAXShbQ0gzXSkoW0NAQF0xKFtPSF0pT1tDSDJdNClPW0NAQEhdM09DKD1PKVtDSDJdW0NIMl1bQ0gyXVtOSDJd

>  <s_epik_cmdline>  (53) 
J2VwaWtfcHl0aG9uJywgJy1waHQnLCAnMi4wJywgJy1waCcsICc3LjAnLCAnLXRuJywgJzgnLCAnLW1hJywgJzIwMCcsICctaW1hZScsICc8aW5maWxlLm1hZT4nLCAnLW9tYWUnLCAnPG91dGZpbGUubWFlPic=

>  <r_epik_Ionization_Penalty>  (53) 
0.00120804

>  <r_epik_Ionization_Penalty_Charging>  (53) 
0.00120744

>  <r_epik_Ionization_Penalty_Neutral>  (53) 
5.96131e-07

>  <r_epik_State_Penalty>  (53) 
0.000797162

>  <r_epik_Charging_Adjusted_Penalty>  (53) 
0.00200461

>  <i_epik_Tot_Q>  (53) 
1

>  <i_epik_Tot_abs_Q>  (53) 
1

>  <s_epik_Chemistry_Notes>  (53) 
This compound has an ester and may undergo hydrolysis at high or low pH. This compound contains an acetal/aminal-like group ( X-CH(R)-Y where X, Y are N, S, or O) that may be acid/base labile, releasing an aldehyde.

>  <s_lp_Force_Field>  (53) 
OPLS3e

>  <r_lp_Energy>  (53) 
55.5535

>  <b_lp_Chiralities_Consistent>  (53) 
1

>  <s_lp_Variant>  (53) 
17:0-1

>  <s_i_glide_gridfile>  (53) 
pfpi4k_grid

>  <i_i_glide_lignum>  (53) 
30

>  <i_i_glide_rotatable_bonds>  (53) 
6

>  <r_i_docking_score>  (53) 
-3.23425

>  <r_i_glide_ligand_efficiency>  (53) 
-0.13476

>  <r_i_glide_ligand_efficiency_sa>  (53) 
-0.388716

>  <r_i_glide_ligand_efficiency_ln>  (53) 
-0.774104

>  <r_i_glide_gscore>  (53) 
-3.23425

>  <r_i_glide_lipo>  (53) 
-0.32075

>  <r_i_glide_hbond>  (53) 
-0.2

>  <r_i_glide_metal>  (53) 
-0

>  <r_i_glide_rewards>  (53) 
-1.18339

>  <r_i_glide_evdw>  (53) 
-18.4682

>  <r_i_glide_ecoul>  (53) 
-7.807

>  <r_i_glide_erotb>  (53) 
0.653599

>  <r_i_glide_esite>  (53) 
-0.0892435

>  <r_i_glide_emodel>  (53) 
-30.884

>  <r_i_glide_energy>  (53) 
-26.2752

>  <r_i_glide_einternal>  (53) 
3.14806

>  <r_i_glide_intrahb_reward>  (53) 
-0

>  <i_i_glide_confnum>  (53) 
5

>  <i_i_glide_posenum>  (53) 
25

>  <r_i_glide_eff_state_penalty>  (53) 
0

>  <ligand_id>  (53) 
17

>  <original_smiles>  (53) 
CC1CCC2COC3(O)C4(C)CCC1C23C(OC(=O)CCCN)O4

>  <smiles>  (53) 
[H]OC12OC([H])([H])C3([H])C([H])([H])C([H])([H])C([H])(C([H])([H])[H])C4([H])C([H])([H])C([H])([H])C1(C([H])([H])[H])OC([H])(OC(=O)C([H])([H])C([H])([H])C([H])([H])[N+]([H])([H])[H])C234

$$$$
17:0:2
     RDKit          3D

 54 57  0  0  1  0  0  0  0  0999 V2000
   -1.6710   -7.0506    4.5588 C   0  0  0  0  0  0  0  0  0  0  0  0
   -0.1446   -7.1182    4.6734 C   0  0  2  0  0  0  0  0  0  0  0  0
    0.4791   -5.6944    4.4977 C   0  0  0  0  0  0  0  0  0  0  0  0
    2.0125   -5.6194    4.2128 C   0  0  0  0  0  0  0  0  0  0  0  0
    2.6282   -7.0009    4.5125 C   0  0  2  0  0  0  0  0  0  0  0  0
    4.1110   -7.3749    4.5623 C   0  0  0  0  0  0  0  0  0  0  0  0
    4.1019   -8.7980    4.2976 O   0  0  0  0  0  0  0  0  0  0  0  0
    2.7702   -9.2820    4.2791 C   0  0  2  0  0  0  0  0  0  0  0  0
    2.3429   -9.6720    5.5671 O   0  0  0  0  0  0  0  0  0  0  0  0
    2.4825  -10.3285    3.2149 C   0  0  1  0  0  0  0  0  0  0  0  0
    3.4413  -11.5215    3.2807 C   0  0  0  0  0  0  0  0  0  0  0  0
    0.9670  -10.7221    3.2789 C   0  0  0  0  0  0  0  0  0  0  0  0
    0.0024   -9.6495    3.8691 C   0  0  0  0  0  0  0  0  0  0  0  0
    0.4622   -8.1791    3.6986 C   0  0  2  0  0  0  0  0  0  0  0  0
    2.0163   -8.1149    3.6695 C   0  0  1  0  0  0  0  0  0  0  0  0
    2.4258   -8.2900    2.1539 C   0  0  1  0  0  0  0  0  0  0  0  0
    3.5072   -7.5008    1.7805 O   0  0  0  0  0  0  0  0  0  0  0  0
    3.2206   -6.3606    1.0960 C   0  0  0  0  0  0  0  0  0  0  0  0
    2.0999   -6.0342    0.6630 O   0  0  0  0  0  0  0  0  0  0  0  0
    4.4282   -5.4596    0.8964 C   0  0  0  0  0  0  0  0  0  0  0  0
    4.2618   -4.3952   -0.2064 C   0  0  0  0  0  0  0  0  0  0  0  0
    3.0762   -3.4098   -0.0484 C   0  0  0  0  0  0  0  0  0  0  0  0
    2.8836   -2.6170   -1.2678 N   0  0  0  0  0  0  0  0  0  0  0  0
    2.6733   -9.6540    1.9908 O   0  0  0  0  0  0  0  0  0  0  0  0
   -1.9830   -6.7587    3.5590 H   0  0  0  0  0  0  0  0  0  0  0  0
   -2.0647   -6.3184    5.2605 H   0  0  0  0  0  0  0  0  0  0  0  0
   -2.1258   -8.0144    4.7812 H   0  0  0  0  0  0  0  0  0  0  0  0
    0.0844   -7.4559    5.6824 H   0  0  0  0  0  0  0  0  0  0  0  0
   -0.0288   -5.1812    3.6873 H   0  0  0  0  0  0  0  0  0  0  0  0
    0.2587   -5.1165    5.3940 H   0  0  0  0  0  0  0  0  0  0  0  0
    2.1388   -5.3475    3.1590 H   0  0  0  0  0  0  0  0  0  0  0  0
    2.4832   -4.8336    4.8275 H   0  0  0  0  0  0  0  0  0  0  0  0
    2.3315   -7.1779    5.5572 H   0  0  0  0  0  0  0  0  0  0  0  0
    4.7124   -6.8477    3.8250 H   0  0  0  0  0  0  0  0  0  0  0  0
    4.5389   -7.1695    5.5391 H   0  0  0  0  0  0  0  0  0  0  0  0
    2.7082  -10.5228    5.7778 H   0  0  0  0  0  0  0  0  0  0  0  0
    3.3318  -12.0441    4.2249 H   0  0  0  0  0  0  0  0  0  0  0  0
    4.4855  -11.2157    3.1791 H   0  0  0  0  0  0  0  0  0  0  0  0
    3.2344  -12.2351    2.4808 H   0  0  0  0  0  0  0  0  0  0  0  0
    0.6252  -11.0030    2.2826 H   0  0  0  0  0  0  0  0  0  0  0  0
    0.8896  -11.6194    3.8816 H   0  0  0  0  0  0  0  0  0  0  0  0
   -0.9647   -9.7873    3.3911 H   0  0  0  0  0  0  0  0  0  0  0  0
   -0.1507   -9.8497    4.9298 H   0  0  0  0  0  0  0  0  0  0  0  0
    0.0727   -7.8660    2.7240 H   0  0  0  0  0  0  0  0  0  0  0  0
    1.5927   -8.1550    1.4648 H   0  0  0  0  0  0  0  0  0  0  0  0
    4.6527   -4.9865    1.8528 H   0  0  0  0  0  0  0  0  0  0  0  0
    5.2964   -6.0749    0.6449 H   0  0  0  0  0  0  0  0  0  0  0  0
    5.1893   -3.8268   -0.2626 H   0  0  0  0  0  0  0  0  0  0  0  0
    4.1975   -4.9235   -1.1575 H   0  0  0  0  0  0  0  0  0  0  0  0
    2.1256   -3.9158    0.1098 H   0  0  0  0  0  0  0  0  0  0  0  0
    3.2413   -2.7287    0.7943 H   0  0  0  0  0  0  0  0  0  0  0  0
    2.0644   -1.9922   -1.1480 H   0  0  0  0  0  0  0  0  0  0  0  0
    2.6873   -3.2378   -2.0551 H   0  0  0  0  0  0  0  0  0  0  0  0
    3.6789   -2.0295   -1.5011 H   0  0  0  0  0  0  0  0  0  0  0  0
  1  2  1  0
  1 25  1  0
  1 26  1  0
  1 27  1  0
  2 14  1  0
  2  3  1  0
  2 28  1  1
  3  4  1  0
  3 29  1  0
  3 30  1  0
  4  5  1  0
  4 31  1  0
  4 32  1  0
  5 15  1  0
  5  6  1  0
  5 33  1  1
  6  7  1  0
  6 34  1  0
  6 35  1  0
  7  8  1  0
 15  8  1  1
  8  9  1  1
  8 10  1  0
  9 36  1  0
 10 24  1  0
 10 11  1  1
 10 12  1  0
 11 37  1  0
 11 38  1  0
 11 39  1  0
 12 13  1  0
 12 40  1  0
 12 41  1  0
 13 14  1  0
 13 42  1  0
 13 43  1  0
 14 15  1  0
 14 44  1  6
 15 16  1  0
 16 17  1  0
 16 24  1  0
 16 45  1  6
 17 18  1  0
 18 19  2  0
 18 20  1  0
 20 21  1  0
 20 46  1  0
 20 47  1  0
 21 22  1  0
 21 48  1  0
 21 49  1  0
 22 23  1  0
 22 50  1  0
 22 51  1  0
 23 52  1  0
 23 53  1  0
 23 54  1  0
M  CHG  1  23   1
M  END
>  <i_m_ct_stereo_status>  (54) 
1

>  <s_m_source_file>  (54) 
/var/tmp/pbs.5076255.sched01/tmpuvpulguu/0mmv31ww_.sdf

>  <i_m_source_file_index>  (54) 
30

>  <i_lp_mmshare_version>  (54) 
48012

>  <i_f3d_flags>  (54) 
0

>  <s_epik_input>  (54) 
W0NAXTEyM1tDQEBIXTRbQ0gyXVtDSDJdW0NAQEhdKFtDSDNdKVtDQEBIXTJbQ0gyXVtDSDJdW0NAXShbQ0gzXSkoW0NAQF0xKFtPSF0pT1tDSDJdNClPW0NAQEhdM09DKD1PKVtDSDJdW0NIMl1bQ0gyXVtOSDJd

>  <s_epik_cmdline>  (54) 
J2VwaWtfcHl0aG9uJywgJy1waHQnLCAnMi4wJywgJy1waCcsICc3LjAnLCAnLXRuJywgJzgnLCAnLW1hJywgJzIwMCcsICctaW1hZScsICc8aW5maWxlLm1hZT4nLCAnLW9tYWUnLCAnPG91dGZpbGUubWFlPic=

>  <r_epik_Ionization_Penalty>  (54) 
0.00120804

>  <r_epik_Ionization_Penalty_Charging>  (54) 
0.00120744

>  <r_epik_Ionization_Penalty_Neutral>  (54) 
5.96131e-07

>  <r_epik_State_Penalty>  (54) 
0.000797162

>  <r_epik_Charging_Adjusted_Penalty>  (54) 
0.00200461

>  <i_epik_Tot_Q>  (54) 
1

>  <i_epik_Tot_abs_Q>  (54) 
1

>  <s_epik_Chemistry_Notes>  (54) 
This compound has an ester and may undergo hydrolysis at high or low pH. This compound contains an acetal/aminal-like group ( X-CH(R)-Y where X, Y are N, S, or O) that may be acid/base labile, releasing an aldehyde.

>  <s_lp_Force_Field>  (54) 
OPLS3e

>  <r_lp_Energy>  (54) 
55.5535

>  <b_lp_Chiralities_Consistent>  (54) 
1

>  <s_lp_Variant>  (54) 
17:0-1

>  <s_i_glide_gridfile>  (54) 
pfpi4k_grid

>  <i_i_glide_lignum>  (54) 
30

>  <i_i_glide_rotatable_bonds>  (54) 
6

>  <r_i_docking_score>  (54) 
-3.14132

>  <r_i_glide_ligand_efficiency>  (54) 
-0.130888

>  <r_i_glide_ligand_efficiency_sa>  (54) 
-0.377547

>  <r_i_glide_ligand_efficiency_ln>  (54) 
-0.751861

>  <r_i_glide_gscore>  (54) 
-3.14132

>  <r_i_glide_lipo>  (54) 
-0.203053

>  <r_i_glide_hbond>  (54) 
-0.2

>  <r_i_glide_metal>  (54) 
-0

>  <r_i_glide_rewards>  (54) 
-1.12817

>  <r_i_glide_evdw>  (54) 
-18.6081

>  <r_i_glide_ecoul>  (54) 
-8.40352

>  <r_i_glide_erotb>  (54) 
0.653599

>  <r_i_glide_esite>  (54) 
-0.0727576

>  <r_i_glide_emodel>  (54) 
-29.6324

>  <r_i_glide_energy>  (54) 
-27.0116

>  <r_i_glide_einternal>  (54) 
4.50925

>  <r_i_glide_intrahb_reward>  (54) 
-0

>  <i_i_glide_confnum>  (54) 
5

>  <i_i_glide_posenum>  (54) 
1

>  <r_i_glide_eff_state_penalty>  (54) 
0

>  <ligand_id>  (54) 
17

>  <original_smiles>  (54) 
CC1CCC2COC3(O)C4(C)CCC1C23C(OC(=O)CCCN)O4

>  <smiles>  (54) 
[H]OC12OC([H])([H])C3([H])C([H])([H])C([H])([H])C([H])(C([H])([H])[H])C4([H])C([H])([H])C([H])([H])C1(C([H])([H])[H])OC([H])(OC(=O)C([H])([H])C([H])([H])C([H])([H])[N+]([H])([H])[H])C234

$$$$
18:0:0
     RDKit          3D

 56 61  0  0  1  0  0  0  0  0999 V2000
    1.8836   -2.0301    1.8239 C   0  0  0  0  0  0  0  0  0  0  0  0
    2.2157   -3.3837    1.4347 O   0  0  0  0  0  0  0  0  0  0  0  0
    2.5645   -4.3504    2.4622 C   0  0  2  0  0  0  0  0  0  0  0  0
    1.4787   -4.5240    3.3536 O   0  0  0  0  0  0  0  0  0  0  0  0
    1.4204   -3.3872    4.2862 O   0  0  0  0  0  0  0  0  0  0  0  0
    2.5171   -3.5503    5.1477 C   0  0  2  0  0  0  0  0  0  0  0  0
    2.3196   -2.5681    6.2991 C   0  0  0  0  0  0  0  0  0  0  0  0
    3.7652   -3.1057    4.3152 C   0  0  0  0  0  0  0  0  0  0  0  0
    3.9864   -4.0276    3.0828 C   0  0  1  0  0  0  0  0  0  0  0  0
    4.9412   -5.1349    3.6469 C   0  0  0  0  0  0  0  0  0  0  0  0
    4.5823   -5.8245    4.9730 C   0  0  0  0  0  0  0  0  0  0  0  0
    3.0843   -6.0417    5.2681 C   0  0  1  0  0  0  0  0  0  0  0  0
    2.5206   -4.8270    5.8159 O   0  0  0  0  0  0  0  0  0  0  0  0
    2.2840   -6.9103    4.2050 C   0  0  2  0  0  0  0  0  0  0  0  0
    2.8714   -6.9557    2.7443 C   0  0  0  0  0  0  0  0  0  0  0  0
    2.6941   -5.7243    1.7812 C   0  0  2  0  0  0  0  0  0  0  0  0
    3.8061   -5.6973    0.6854 C   0  0  0  0  0  0  0  0  0  0  0  0
    4.7023   -4.4429    0.6794 C   0  0  0  0  0  0  0  0  0  0  0  0
    5.4016   -4.1382   -0.5088 C   0  0  0  0  0  0  0  0  0  0  0  0
    6.2147   -2.9946   -0.5637 C   0  0  0  0  0  0  0  0  0  0  0  0
    6.3267   -2.1640    0.5668 C   0  0  0  0  0  0  0  0  0  0  0  0
    7.1490   -1.0746    0.4761 O   0  0  0  0  0  0  0  0  0  0  0  0
    5.6183   -2.4498    1.7550 C   0  0  0  0  0  0  0  0  0  0  0  0
    5.7746   -1.6084    2.8303 O   0  0  0  0  0  0  0  0  0  0  0  0
    4.7945   -3.5897    1.8283 C   0  0  0  0  0  0  0  0  0  0  0  0
    0.8267   -6.9042    4.3737 N   0  0  0  0  0  0  0  0  0  0  0  0
    0.8366   -8.3467    4.3597 C   0  0  1  0  0  0  0  0  0  0  0  0
    0.3724   -8.9224    2.9849 C   0  0  0  0  0  0  0  0  0  0  0  0
    2.2629   -8.2939    4.6258 O   0  0  0  0  0  0  0  0  0  0  0  0
    1.7600   -1.3675    0.9747 H   0  0  0  0  0  0  0  0  0  0  0  0
    2.6827   -1.4945    2.3510 H   0  0  0  0  0  0  0  0  0  0  0  0
    0.9716   -1.9748    2.4323 H   0  0  0  0  0  0  0  0  0  0  0  0
    1.4284   -2.8093    6.8699 H   0  0  0  0  0  0  0  0  0  0  0  0
    2.2410   -1.5355    5.9648 H   0  0  0  0  0  0  0  0  0  0  0  0
    3.1684   -2.6378    6.9749 H   0  0  0  0  0  0  0  0  0  0  0  0
    3.5911   -2.0614    4.0372 H   0  0  0  0  0  0  0  0  0  0  0  0
    4.6708   -3.0241    4.9198 H   0  0  0  0  0  0  0  0  0  0  0  0
    5.2364   -5.8701    2.8973 H   0  0  0  0  0  0  0  0  0  0  0  0
    5.9038   -4.6515    3.8262 H   0  0  0  0  0  0  0  0  0  0  0  0
    5.0860   -6.7866    4.9800 H   0  0  0  0  0  0  0  0  0  0  0  0
    5.0345   -5.2739    5.7922 H   0  0  0  0  0  0  0  0  0  0  0  0
    3.1020   -6.6169    6.2002 H   0  0  0  0  0  0  0  0  0  0  0  0
    3.8983   -7.2753    2.8374 H   0  0  0  0  0  0  0  0  0  0  0  0
    2.5993   -7.8422    2.1706 H   0  0  0  0  0  0  0  0  0  0  0  0
    1.7589   -5.9240    1.2640 H   0  0  0  0  0  0  0  0  0  0  0  0
    4.4438   -6.5740    0.7539 H   0  0  0  0  0  0  0  0  0  0  0  0
    3.3458   -5.7876   -0.2941 H   0  0  0  0  0  0  0  0  0  0  0  0
    5.3139   -4.7687   -1.3844 H   0  0  0  0  0  0  0  0  0  0  0  0
    6.7483   -2.7502   -1.4721 H   0  0  0  0  0  0  0  0  0  0  0  0
    7.1979   -0.4947    1.2128 H   0  0  0  0  0  0  0  0  0  0  0  0
    6.3874   -0.9174    2.6983 H   0  0  0  0  0  0  0  0  0  0  0  0
    0.6967   -6.6445    5.3494 H   0  0  0  0  0  0  0  0  0  0  0  0
    0.3108   -8.7862    5.2253 H   0  0  0  0  0  0  0  0  0  0  0  0
   -0.6990   -8.7646    2.8657 H   0  0  0  0  0  0  0  0  0  0  0  0
    0.6162   -9.9869    2.9243 H   0  0  0  0  0  0  0  0  0  0  0  0
    0.7645   -8.4335    2.0704 H   0  0  0  0  0  0  0  0  0  0  0  0
  1  2  1  0
  1 30  1  0
  1 31  1  0
  1 32  1  0
  3  2  1  6
  3  9  1  0
  3 16  1  0
  3  4  1  0
  4  5  1  0
  5  6  1  0
  6 13  1  0
  6  7  1  1
  6  8  1  0
  7 33  1  0
  7 34  1  0
  7 35  1  0
  8  9  1  0
  8 36  1  0
  8 37  1  0
  9 25  1  6
  9 10  1  0
 10 11  1  0
 10 38  1  0
 10 39  1  0
 11 12  1  0
 11 40  1  0
 11 41  1  0
 12 13  1  0
 12 14  1  0
 12 42  1  1
 14 29  1  1
 14 15  1  0
 14 26  1  0
 15 16  1  0
 15 43  1  0
 15 44  1  0
 16 17  1  0
 16 45  1  6
 17 18  1  0
 17 46  1  0
 17 47  1  0
 18 25  2  0
 18 19  1  0
 19 20  2  0
 19 48  1  0
 20 21  1  0
 20 49  1  0
 21 22  1  0
 21 23  2  0
 22 50  1  0
 23 24  1  0
 23 25  1  0
 24 51  1  0
 26 27  1  0
 26 52  1  0
 27 28  1  0
 27 29  1  0
 27 53  1  1
 28 54  1  0
 28 55  1  0
 28 56  1  0
M  END
>  <i_m_ct_stereo_status>  (55) 
1

>  <s_m_source_file>  (55) 
/var/tmp/pbs.5076255.sched01/tmpuvpulguu/0mmv31ww_.sdf

>  <i_m_source_file_index>  (55) 
31

>  <i_lp_mmshare_version>  (55) 
48012

>  <i_f3d_flags>  (55) 
0

>  <s_epik_input>  (55) 
W2NIXTFbY0hdYyhbT0hdKWMoW09IXSljMmMxW0NIMl1bQ0BIXShbQ0BAXTMoW0NAQF0yNDUpT1tDSDNdKVtDSDJdW0NAXTYoW05IXVtDQEhdKE82KVtDSDNdKVtDQEBIXShbQ0gyXVtDSDJdNSlPW0NAQF0oT08zKShbQ0gzXSlbQ0gyXTQ=

>  <s_epik_cmdline>  (55) 
J2VwaWtfcHl0aG9uJywgJy1waHQnLCAnMi4wJywgJy1waCcsICc3LjAnLCAnLXRuJywgJzgnLCAnLW1hJywgJzIwMCcsICctaW1hZScsICc8aW5maWxlLm1hZT4nLCAnLW9tYWUnLCAnPG91dGZpbGUubWFlPic=

>  <r_lp_tautomer_probability>  (55) 
1

>  <r_epik_Ionization_Penalty>  (55) 
0.00301286

>  <r_epik_Ionization_Penalty_Charging>  (55) 
0

>  <r_epik_Ionization_Penalty_Neutral>  (55) 
0.00301286

>  <r_epik_State_Penalty>  (55) 
-0

>  <r_epik_Charging_Adjusted_Penalty>  (55) 
0

>  <i_epik_Tot_Q>  (55) 
0

>  <i_epik_Tot_abs_Q>  (55) 
0

>  <s_epik_Chemistry_Notes>  (55) 
This compound contains an acetal/aminal-like group ( X-CH(R)-Y where X, Y are N, S, or O) that may be acid/base labile, releasing an aldehyde.

>  <s_lp_Force_Field>  (55) 
OPLS3e

>  <r_lp_Energy>  (55) 
85.0895

>  <b_lp_Chiralities_Consistent>  (55) 
1

>  <s_lp_Variant>  (55) 
18:0-1

>  <s_i_glide_gridfile>  (55) 
pfpi4k_grid

>  <i_i_glide_lignum>  (55) 
31

>  <i_i_glide_rotatable_bonds>  (55) 
3

>  <r_i_docking_score>  (55) 
-2.21667

>  <r_i_glide_ligand_efficiency>  (55) 
-0.0764367

>  <r_i_glide_ligand_efficiency_sa>  (55) 
-0.234838

>  <r_i_glide_ligand_efficiency_ln>  (55) 
-0.50756

>  <r_i_glide_gscore>  (55) 
-2.21667

>  <r_i_glide_lipo>  (55) 
-0.331838

>  <r_i_glide_hbond>  (55) 
0

>  <r_i_glide_metal>  (55) 
-0

>  <r_i_glide_rewards>  (55) 
-0.644716

>  <r_i_glide_evdw>  (55) 
-15.9891

>  <r_i_glide_ecoul>  (55) 
-2.75971

>  <r_i_glide_erotb>  (55) 
0

>  <r_i_glide_esite>  (55) 
-0.0266978

>  <r_i_glide_emodel>  (55) 
-18.0463

>  <r_i_glide_energy>  (55) 
-18.7488

>  <r_i_glide_einternal>  (55) 
2.90448

>  <r_i_glide_intrahb_reward>  (55) 
-0

>  <i_i_glide_confnum>  (55) 
2

>  <i_i_glide_posenum>  (55) 
22

>  <r_i_glide_eff_state_penalty>  (55) 
0

>  <ligand_id>  (55) 
18

>  <original_smiles>  (55) 
COC12OOC3(C)CC14CCC(O3)C1(CC2Cc2ccc(O)c(O)c24)NC(C)O1

>  <smiles>  (55) 
[H]Oc1c([H])c([H])c2c(c1O[H])C13C([H])([H])C([H])([H])C4([H])OC(C([H])([H])[H])(OOC1(OC([H])([H])[H])C([H])(C2([H])[H])C([H])([H])C41OC([H])(C([H])([H])[H])N1[H])C3([H])[H]

$$$$
18:0:1
     RDKit          3D

 56 61  0  0  1  0  0  0  0  0999 V2000
    1.8163   -2.4853    1.9903 C   0  0  0  0  0  0  0  0  0  0  0  0
    2.2098   -3.8119    1.5494 O   0  0  0  0  0  0  0  0  0  0  0  0
    2.6929   -4.7704    2.5317 C   0  0  2  0  0  0  0  0  0  0  0  0
    1.6731   -5.0446    3.4683 O   0  0  0  0  0  0  0  0  0  0  0  0
    1.5658   -3.9553    4.4293 O   0  0  0  0  0  0  0  0  0  0  0  0
    2.7079   -4.0363    5.2392 C   0  0  2  0  0  0  0  0  0  0  0  0
    2.4799   -3.1050    6.4237 C   0  0  0  0  0  0  0  0  0  0  0  0
    3.8741   -3.4582    4.3662 C   0  0  0  0  0  0  0  0  0  0  0  0
    4.1097   -4.3406    3.0952 C   0  0  1  0  0  0  0  0  0  0  0  0
    5.1798   -5.3795    3.5885 C   0  0  0  0  0  0  0  0  0  0  0  0
    4.9393   -6.1277    4.9067 C   0  0  0  0  0  0  0  0  0  0  0  0
    3.4867   -6.4736    5.2653 C   0  0  1  0  0  0  0  0  0  0  0  0
    2.8459   -5.3298    5.8733 O   0  0  0  0  0  0  0  0  0  0  0  0
    2.7109   -7.3813    4.2000 C   0  0  2  0  0  0  0  0  0  0  0  0
    3.2221   -7.3546    2.7123 C   0  0  0  0  0  0  0  0  0  0  0  0
    2.9062   -6.1176    1.8044 C   0  0  2  0  0  0  0  0  0  0  0  0
    3.9586   -5.9525    0.6680 C   0  0  0  0  0  0  0  0  0  0  0  0
    4.7460   -4.6368    0.6458 C   0  0  0  0  0  0  0  0  0  0  0  0
    5.3621   -4.2343   -0.5509 C   0  0  0  0  0  0  0  0  0  0  0  0
    6.0732   -3.0341   -0.6196 C   0  0  0  0  0  0  0  0  0  0  0  0
    6.1808   -2.2164    0.5367 C   0  0  0  0  0  0  0  0  0  0  0  0
    6.9026   -1.0626    0.4694 O   0  0  0  0  0  0  0  0  0  0  0  0
    5.5561   -2.6003    1.7338 C   0  0  0  0  0  0  0  0  0  0  0  0
    5.6943   -1.7595    2.8203 O   0  0  0  0  0  0  0  0  0  0  0  0
    4.8259   -3.7931    1.8305 C   0  0  0  0  0  0  0  0  0  0  0  0
    1.2602   -7.4968    4.4385 N   0  0  0  0  0  0  0  0  0  0  0  0
    1.3924   -8.9406    4.3755 C   0  0  1  0  0  0  0  0  0  0  0  0
    0.9156   -9.5176    3.0039 C   0  0  0  0  0  0  0  0  0  0  0  0
    2.8295   -8.7773    4.5916 O   0  0  0  0  0  0  0  0  0  0  0  0
    1.5452   -1.8293    1.1571 H   0  0  0  0  0  0  0  0  0  0  0  0
    2.6003   -1.9064    2.4783 H   0  0  0  0  0  0  0  0  0  0  0  0
    0.9341   -2.5182    2.6441 H   0  0  0  0  0  0  0  0  0  0  0  0
    1.6401   -3.4355    7.0251 H   0  0  0  0  0  0  0  0  0  0  0  0
    2.3004   -2.0772    6.1208 H   0  0  0  0  0  0  0  0  0  0  0  0
    3.3617   -3.1213    7.0580 H   0  0  0  0  0  0  0  0  0  0  0  0
    3.5843   -2.4394    4.1268 H   0  0  0  0  0  0  0  0  0  0  0  0
    4.7990   -3.3446    4.9450 H   0  0  0  0  0  0  0  0  0  0  0  0
    5.5012   -6.0652    2.8025 H   0  0  0  0  0  0  0  0  0  0  0  0
    6.1073   -4.8201    3.7373 H   0  0  0  0  0  0  0  0  0  0  0  0
    5.5220   -7.0410    4.8640 H   0  0  0  0  0  0  0  0  0  0  0  0
    5.3827   -5.5608    5.7199 H   0  0  0  0  0  0  0  0  0  0  0  0
    3.5900   -7.0749    6.1769 H   0  0  0  0  0  0  0  0  0  0  0  0
    4.2871   -7.5680    2.7672 H   0  0  0  0  0  0  0  0  0  0  0  0
    3.0001   -8.2382    2.1378 H   0  0  0  0  0  0  0  0  0  0  0  0
    1.9661   -6.3688    1.3287 H   0  0  0  0  0  0  0  0  0  0  0  0
    4.6677   -6.7800    0.6792 H   0  0  0  0  0  0  0  0  0  0  0  0
    3.4618   -6.0630   -0.2971 H   0  0  0  0  0  0  0  0  0  0  0  0
    5.2832   -4.8580   -1.4448 H   0  0  0  0  0  0  0  0  0  0  0  0
    6.5402   -2.7225   -1.5372 H   0  0  0  0  0  0  0  0  0  0  0  0
    6.9228   -0.5958    1.2965 H   0  0  0  0  0  0  0  0  0  0  0  0
    5.2643   -2.1165    3.5758 H   0  0  0  0  0  0  0  0  0  0  0  0
    1.1628   -7.2864    5.4265 H   0  0  0  0  0  0  0  0  0  0  0  0
    0.9486   -9.4357    5.2768 H   0  0  0  0  0  0  0  0  0  0  0  0
   -0.1775   -9.4566    2.9643 H   0  0  0  0  0  0  0  0  0  0  0  0
    1.2404  -10.5591    2.9234 H   0  0  0  0  0  0  0  0  0  0  0  0
    1.2235   -8.9730    2.1090 H   0  0  0  0  0  0  0  0  0  0  0  0
  1  2  1  0
  1 30  1  0
  1 31  1  0
  1 32  1  0
  3  2  1  6
  3  9  1  0
  3 16  1  0
  3  4  1  0
  4  5  1  0
  5  6  1  0
  6 13  1  0
  6  7  1  1
  6  8  1  0
  7 33  1  0
  7 34  1  0
  7 35  1  0
  8  9  1  0
  8 36  1  0
  8 37  1  0
  9 25  1  6
  9 10  1  0
 10 11  1  0
 10 38  1  0
 10 39  1  0
 11 12  1  0
 11 40  1  0
 11 41  1  0
 12 13  1  0
 12 14  1  0
 12 42  1  1
 14 29  1  1
 14 15  1  0
 14 26  1  0
 15 16  1  0
 15 43  1  0
 15 44  1  0
 16 17  1  0
 16 45  1  6
 17 18  1  0
 17 46  1  0
 17 47  1  0
 18 25  2  0
 18 19  1  0
 19 20  2  0
 19 48  1  0
 20 21  1  0
 20 49  1  0
 21 22  1  0
 21 23  2  0
 22 50  1  0
 23 24  1  0
 23 25  1  0
 24 51  1  0
 26 27  1  0
 26 52  1  0
 27 28  1  0
 27 29  1  0
 27 53  1  1
 28 54  1  0
 28 55  1  0
 28 56  1  0
M  END
>  <i_m_ct_stereo_status>  (56) 
1

>  <s_m_source_file>  (56) 
/var/tmp/pbs.5076255.sched01/tmpuvpulguu/0mmv31ww_.sdf

>  <i_m_source_file_index>  (56) 
31

>  <i_lp_mmshare_version>  (56) 
48012

>  <i_f3d_flags>  (56) 
0

>  <s_epik_input>  (56) 
W2NIXTFbY0hdYyhbT0hdKWMoW09IXSljMmMxW0NIMl1bQ0BIXShbQ0BAXTMoW0NAQF0yNDUpT1tDSDNdKVtDSDJdW0NAXTYoW05IXVtDQEhdKE82KVtDSDNdKVtDQEBIXShbQ0gyXVtDSDJdNSlPW0NAQF0oT08zKShbQ0gzXSlbQ0gyXTQ=

>  <s_epik_cmdline>  (56) 
J2VwaWtfcHl0aG9uJywgJy1waHQnLCAnMi4wJywgJy1waCcsICc3LjAnLCAnLXRuJywgJzgnLCAnLW1hJywgJzIwMCcsICctaW1hZScsICc8aW5maWxlLm1hZT4nLCAnLW9tYWUnLCAnPG91dGZpbGUubWFlPic=

>  <r_lp_tautomer_probability>  (56) 
1

>  <r_epik_Ionization_Penalty>  (56) 
0.00301286

>  <r_epik_Ionization_Penalty_Charging>  (56) 
0

>  <r_epik_Ionization_Penalty_Neutral>  (56) 
0.00301286

>  <r_epik_State_Penalty>  (56) 
-0

>  <r_epik_Charging_Adjusted_Penalty>  (56) 
0

>  <i_epik_Tot_Q>  (56) 
0

>  <i_epik_Tot_abs_Q>  (56) 
0

>  <s_epik_Chemistry_Notes>  (56) 
This compound contains an acetal/aminal-like group ( X-CH(R)-Y where X, Y are N, S, or O) that may be acid/base labile, releasing an aldehyde.

>  <s_lp_Force_Field>  (56) 
OPLS3e

>  <r_lp_Energy>  (56) 
85.0895

>  <b_lp_Chiralities_Consistent>  (56) 
1

>  <s_lp_Variant>  (56) 
18:0-1

>  <s_i_glide_gridfile>  (56) 
pfpi4k_grid

>  <i_i_glide_lignum>  (56) 
31

>  <i_i_glide_rotatable_bonds>  (56) 
3

>  <r_i_docking_score>  (56) 
-2.19097

>  <r_i_glide_ligand_efficiency>  (56) 
-0.0755508

>  <r_i_glide_ligand_efficiency_sa>  (56) 
-0.232116

>  <r_i_glide_ligand_efficiency_ln>  (56) 
-0.501677

>  <r_i_glide_gscore>  (56) 
-2.19097

>  <r_i_glide_lipo>  (56) 
-0.386487

>  <r_i_glide_hbond>  (56) 
0

>  <r_i_glide_metal>  (56) 
-0

>  <r_i_glide_rewards>  (56) 
-0.644716

>  <r_i_glide_evdw>  (56) 
-16.216

>  <r_i_glide_ecoul>  (56) 
-2.18093

>  <r_i_glide_erotb>  (56) 
0

>  <r_i_glide_esite>  (56) 
-0.0218297

>  <r_i_glide_emodel>  (56) 
-17.7207

>  <r_i_glide_energy>  (56) 
-18.3969

>  <r_i_glide_einternal>  (56) 
2.9224

>  <r_i_glide_intrahb_reward>  (56) 
-0

>  <i_i_glide_confnum>  (56) 
2

>  <i_i_glide_posenum>  (56) 
1

>  <r_i_glide_eff_state_penalty>  (56) 
0

>  <ligand_id>  (56) 
18

>  <original_smiles>  (56) 
COC12OOC3(C)CC14CCC(O3)C1(CC2Cc2ccc(O)c(O)c24)NC(C)O1

>  <smiles>  (56) 
[H]Oc1c([H])c([H])c2c(c1O[H])C13C([H])([H])C([H])([H])C4([H])OC(C([H])([H])[H])(OOC1(OC([H])([H])[H])C([H])(C2([H])[H])C([H])([H])C41OC([H])(C([H])([H])[H])N1[H])C3([H])[H]

$$$$
18:0:2
     RDKit          3D

 56 61  0  0  1  0  0  0  0  0999 V2000
    1.6698   -0.8325    1.8032 C   0  0  0  0  0  0  0  0  0  0  0  0
    1.8107   -2.2172    1.4249 O   0  0  0  0  0  0  0  0  0  0  0  0
    2.9097   -3.0468    1.8805 C   0  0  2  0  0  0  0  0  0  0  0  0
    2.9284   -2.9845    3.2839 O   0  0  0  0  0  0  0  0  0  0  0  0
    3.5152   -1.7209    3.7316 O   0  0  0  0  0  0  0  0  0  0  0  0
    4.8566   -1.7835    3.3949 C   0  0  2  0  0  0  0  0  0  0  0  0
    5.5161   -0.6064    4.1052 C   0  0  0  0  0  0  0  0  0  0  0  0
    4.9458   -1.5625    1.8480 C   0  0  0  0  0  0  0  0  0  0  0  0
    4.2243   -2.6985    1.0770 C   0  0  1  0  0  0  0  0  0  0  0  0
    5.3484   -3.7550    0.8432 C   0  0  0  0  0  0  0  0  0  0  0  0
    6.2016   -4.1999    2.0303 C   0  0  0  0  0  0  0  0  0  0  0  0
    5.5199   -4.2669    3.4052 C   0  0  1  0  0  0  0  0  0  0  0  0
    5.4463   -2.9443    4.0010 O   0  0  0  0  0  0  0  0  0  0  0  0
    4.2731   -5.2613    3.5055 C   0  0  2  0  0  0  0  0  0  0  0  0
    3.5096   -5.5947    2.1808 C   0  0  0  0  0  0  0  0  0  0  0  0
    2.5610   -4.5301    1.5620 C   0  0  2  0  0  0  0  0  0  0  0  0
    2.3950   -4.7193    0.0267 C   0  0  0  0  0  0  0  0  0  0  0  0
    2.8091   -3.5254   -0.8682 C   0  0  0  0  0  0  0  0  0  0  0  0
    2.2789   -3.4516   -2.1721 C   0  0  0  0  0  0  0  0  0  0  0  0
    2.6514   -2.3869   -3.0340 C   0  0  0  0  0  0  0  0  0  0  0  0
    3.5241   -1.4155   -2.5592 C   0  0  0  0  0  0  0  0  0  0  0  0
    3.8624   -0.3639   -3.3770 O   0  0  0  0  0  0  0  0  0  0  0  0
    4.0653   -1.4825   -1.2565 C   0  0  0  0  0  0  0  0  0  0  0  0
    4.9472   -0.5696   -0.8474 O   0  0  0  0  0  0  0  0  0  0  0  0
    3.6910   -2.5386   -0.3694 C   0  0  0  0  0  0  0  0  0  0  0  0
    3.5060   -5.1369    4.7468 N   0  0  0  0  0  0  0  0  0  0  0  0
    3.6313   -6.5536    4.9495 C   0  0  1  0  0  0  0  0  0  0  0  0
    2.3223   -7.3222    4.5831 C   0  0  0  0  0  0  0  0  0  0  0  0
    4.7277   -6.5500    3.9867 O   0  0  0  0  0  0  0  0  0  0  0  0
    0.8436   -0.3276    1.2864 H   0  0  0  0  0  0  0  0  0  0  0  0
    2.5066   -0.2026    1.5790 H   0  0  0  0  0  0  0  0  0  0  0  0
    1.4418   -0.7634    2.8642 H   0  0  0  0  0  0  0  0  0  0  0  0
    5.4567   -0.7146    5.1887 H   0  0  0  0  0  0  0  0  0  0  0  0
    5.0940    0.3514    3.8160 H   0  0  0  0  0  0  0  0  0  0  0  0
    6.5514   -0.5612    3.7946 H   0  0  0  0  0  0  0  0  0  0  0  0
    4.5248   -0.5936    1.6365 H   0  0  0  0  0  0  0  0  0  0  0  0
    5.9813   -1.4555    1.5143 H   0  0  0  0  0  0  0  0  0  0  0  0
    5.0113   -4.6085    0.2574 H   0  0  0  0  0  0  0  0  0  0  0  0
    6.0366   -3.3020    0.1319 H   0  0  0  0  0  0  0  0  0  0  0  0
    6.6185   -5.1700    1.7853 H   0  0  0  0  0  0  0  0  0  0  0  0
    7.0501   -3.5371    2.0789 H   0  0  0  0  0  0  0  0  0  0  0  0
    6.2973   -4.7032    4.0546 H   0  0  0  0  0  0  0  0  0  0  0  0
    4.2723   -5.9045    1.4846 H   0  0  0  0  0  0  0  0  0  0  0  0
    2.9914   -6.5231    2.1655 H   0  0  0  0  0  0  0  0  0  0  0  0
    1.5931   -4.7104    2.0192 H   0  0  0  0  0  0  0  0  0  0  0  0
    2.9334   -5.6028   -0.2883 H   0  0  0  0  0  0  0  0  0  0  0  0
    1.3757   -4.9768   -0.2188 H   0  0  0  0  0  0  0  0  0  0  0  0
    1.6320   -4.2237   -2.5344 H   0  0  0  0  0  0  0  0  0  0  0  0
    2.2435   -2.3640   -4.0294 H   0  0  0  0  0  0  0  0  0  0  0  0
    3.2329   -0.2444   -4.0659 H   0  0  0  0  0  0  0  0  0  0  0  0
    4.8268    0.2528   -1.3201 H   0  0  0  0  0  0  0  0  0  0  0  0
    4.1635   -4.6996    5.4069 H   0  0  0  0  0  0  0  0  0  0  0  0
    4.0474   -6.7771    5.9598 H   0  0  0  0  0  0  0  0  0  0  0  0
    1.5827   -7.1317    5.3587 H   0  0  0  0  0  0  0  0  0  0  0  0
    2.5405   -8.3842    4.5274 H   0  0  0  0  0  0  0  0  0  0  0  0
    1.8166   -7.0114    3.6748 H   0  0  0  0  0  0  0  0  0  0  0  0
  1  2  1  0
  1 30  1  0
  1 31  1  0
  1 32  1  0
  3  2  1  6
  3  9  1  0
  3 16  1  0
  3  4  1  0
  4  5  1  0
  5  6  1  0
  6 13  1  0
  6  7  1  1
  6  8  1  0
  7 33  1  0
  7 34  1  0
  7 35  1  0
  8  9  1  0
  8 36  1  0
  8 37  1  0
  9 25  1  6
  9 10  1  0
 10 11  1  0
 10 38  1  0
 10 39  1  0
 11 12  1  0
 11 40  1  0
 11 41  1  0
 12 13  1  0
 12 14  1  0
 12 42  1  1
 14 29  1  1
 14 15  1  0
 14 26  1  0
 15 16  1  0
 15 43  1  0
 15 44  1  0
 16 17  1  0
 16 45  1  1
 17 18  1  0
 17 46  1  0
 17 47  1  0
 18 25  2  0
 18 19  1  0
 19 20  2  0
 19 48  1  0
 20 21  1  0
 20 49  1  0
 21 22  1  0
 21 23  2  0
 22 50  1  0
 23 24  1  0
 23 25  1  0
 24 51  1  0
 26 27  1  0
 26 52  1  0
 27 28  1  0
 27 29  1  0
 27 53  1  1
 28 54  1  0
 28 55  1  0
 28 56  1  0
M  END
>  <i_m_ct_stereo_status>  (57) 
1

>  <s_m_source_file>  (57) 
/var/tmp/pbs.5076255.sched01/tmpuvpulguu/0mmv31ww_.sdf

>  <i_m_source_file_index>  (57) 
31

>  <i_lp_mmshare_version>  (57) 
48012

>  <i_f3d_flags>  (57) 
0

>  <s_epik_input>  (57) 
W2NIXTFbY0hdYyhbT0hdKWMoW09IXSljMmMxW0NIMl1bQ0BIXShbQ0BAXTMoW0NAQF0yNDUpT1tDSDNdKVtDSDJdW0NAXTYoW05IXVtDQEhdKE82KVtDSDNdKVtDQEBIXShbQ0gyXVtDSDJdNSlPW0NAQF0oT08zKShbQ0gzXSlbQ0gyXTQ=

>  <s_epik_cmdline>  (57) 
J2VwaWtfcHl0aG9uJywgJy1waHQnLCAnMi4wJywgJy1waCcsICc3LjAnLCAnLXRuJywgJzgnLCAnLW1hJywgJzIwMCcsICctaW1hZScsICc8aW5maWxlLm1hZT4nLCAnLW9tYWUnLCAnPG91dGZpbGUubWFlPic=

>  <r_lp_tautomer_probability>  (57) 
1

>  <r_epik_Ionization_Penalty>  (57) 
0.00301286

>  <r_epik_Ionization_Penalty_Charging>  (57) 
0

>  <r_epik_Ionization_Penalty_Neutral>  (57) 
0.00301286

>  <r_epik_State_Penalty>  (57) 
-0

>  <r_epik_Charging_Adjusted_Penalty>  (57) 
0

>  <i_epik_Tot_Q>  (57) 
0

>  <i_epik_Tot_abs_Q>  (57) 
0

>  <s_epik_Chemistry_Notes>  (57) 
This compound contains an acetal/aminal-like group ( X-CH(R)-Y where X, Y are N, S, or O) that may be acid/base labile, releasing an aldehyde.

>  <s_lp_Force_Field>  (57) 
OPLS3e

>  <r_lp_Energy>  (57) 
85.0895

>  <b_lp_Chiralities_Consistent>  (57) 
1

>  <s_lp_Variant>  (57) 
18:0-1

>  <s_i_glide_gridfile>  (57) 
pfpi4k_grid

>  <i_i_glide_lignum>  (57) 
31

>  <i_i_glide_rotatable_bonds>  (57) 
3

>  <r_i_docking_score>  (57) 
-2.18861

>  <r_i_glide_ligand_efficiency>  (57) 
-0.0754694

>  <r_i_glide_ligand_efficiency_sa>  (57) 
-0.231866

>  <r_i_glide_ligand_efficiency_ln>  (57) 
-0.501137

>  <r_i_glide_gscore>  (57) 
-2.18861

>  <r_i_glide_lipo>  (57) 
-0.439838

>  <r_i_glide_hbond>  (57) 
-0.000268742

>  <r_i_glide_metal>  (57) 
-0

>  <r_i_glide_rewards>  (57) 
-0.726084

>  <r_i_glide_evdw>  (57) 
-16.037

>  <r_i_glide_ecoul>  (57) 
-1.43485

>  <r_i_glide_erotb>  (57) 
0

>  <r_i_glide_esite>  (57) 
-0.00534303

>  <r_i_glide_emodel>  (57) 
-15.4375

>  <r_i_glide_energy>  (57) 
-17.4719

>  <r_i_glide_einternal>  (57) 
4.13171

>  <r_i_glide_intrahb_reward>  (57) 
-0

>  <i_i_glide_confnum>  (57) 
2

>  <i_i_glide_posenum>  (57) 
11

>  <r_i_glide_eff_state_penalty>  (57) 
0

>  <ligand_id>  (57) 
18

>  <original_smiles>  (57) 
COC12OOC3(C)CC14CCC(O3)C1(CC2Cc2ccc(O)c(O)c24)NC(C)O1

>  <smiles>  (57) 
[H]Oc1c([H])c([H])c2c(c1O[H])C13C([H])([H])C([H])([H])C4([H])OC(C([H])([H])[H])(OOC1(OC([H])([H])[H])C([H])(C2([H])[H])C([H])([H])C41OC([H])(C([H])([H])[H])N1[H])C3([H])[H]

$$$$
20:0:0
     RDKit          3D

 49 52  0  0  1  0  0  0  0  0999 V2000
   10.0103   -6.0988    6.3008 C   0  0  0  0  0  0  0  0  0  0  0  0
    8.8109   -6.4158    5.4430 C   0  0  0  0  0  0  0  0  0  0  0  0
    7.6037   -6.1370    5.9623 N   0  0  0  0  0  0  0  0  0  0  0  0
    6.5335   -6.4173    5.1921 C   0  0  0  0  0  0  0  0  0  0  0  0
    6.6716   -6.9480    3.9027 C   0  0  0  0  0  0  0  0  0  0  0  0
    7.9968   -7.2021    3.4554 C   0  0  0  0  0  0  0  0  0  0  0  0
    9.0578   -6.9382    4.2408 N   0  0  0  0  0  0  0  0  0  0  0  0
    8.2114   -7.7710    2.2133 N   0  0  0  0  0  0  0  0  0  0  0  0
    7.1278   -7.9486    1.2785 C   0  0  0  0  0  0  0  0  0  0  0  0
    5.8113   -8.3426    1.9554 C   0  0  2  0  0  0  0  0  0  0  0  0
    5.9696   -9.7645    2.5574 C   0  0  0  0  0  0  0  0  0  0  0  0
    4.6537  -10.2556    3.1696 C   0  0  0  0  0  0  0  0  0  0  0  0
    3.5295  -10.2386    2.1910 N   0  0  1  0  0  0  0  0  0  0  0  0
    2.2570  -10.7604    2.7627 C   0  0  0  0  0  0  0  0  0  0  0  0
    1.9844  -10.2934    4.2086 C   0  0  2  0  0  0  0  0  0  0  0  0
    0.7241  -10.8664    4.8315 C   0  0  0  0  0  0  0  0  0  0  0  0
    0.4310   -9.7916    5.8490 C   0  0  0  0  0  0  0  0  0  0  0  0
    0.7684   -8.5115    5.0928 C   0  0  0  0  0  0  0  0  0  0  0  0
    1.8313   -8.8766    4.2339 O   0  0  0  0  0  0  0  0  0  0  0  0
    3.3516   -8.9018    1.5643 C   0  0  0  0  0  0  0  0  0  0  0  0
    4.6606   -8.3908    0.9237 C   0  0  0  0  0  0  0  0  0  0  0  0
    5.4973   -7.2357    3.0130 C   0  0  0  0  0  0  0  0  0  0  0  0
    9.7126   -5.5487    7.1901 H   0  0  0  0  0  0  0  0  0  0  0  0
   10.7190   -5.4950    5.7377 H   0  0  0  0  0  0  0  0  0  0  0  0
   10.4927   -7.0249    6.6039 H   0  0  0  0  0  0  0  0  0  0  0  0
    5.5646   -6.2062    5.6100 H   0  0  0  0  0  0  0  0  0  0  0  0
    9.2082   -7.8414    1.8732 H   0  0  0  0  0  0  0  0  0  0  0  0
    6.9983   -7.0123    0.7229 H   0  0  0  0  0  0  0  0  0  0  0  0
    7.4089   -8.7216    0.5540 H   0  0  0  0  0  0  0  0  0  0  0  0
    6.3133  -10.4790    1.8048 H   0  0  0  0  0  0  0  0  0  0  0  0
    6.7236   -9.7749    3.3500 H   0  0  0  0  0  0  0  0  0  0  0  0
    4.7922  -11.2533    3.5914 H   0  0  0  0  0  0  0  0  0  0  0  0
    4.4768   -9.5888    4.0114 H   0  0  0  0  0  0  0  0  0  0  0  0
    1.4180  -10.4876    2.1184 H   0  0  0  0  0  0  0  0  0  0  0  0
    2.3027  -11.8487    2.7289 H   0  0  0  0  0  0  0  0  0  0  0  0
    2.7783  -10.5760    4.8996 H   0  0  0  0  0  0  0  0  0  0  0  0
   -0.0616  -10.9782    4.0807 H   0  0  0  0  0  0  0  0  0  0  0  0
    0.9215  -11.8512    5.2666 H   0  0  0  0  0  0  0  0  0  0  0  0
   -0.5929   -9.8148    6.2044 H   0  0  0  0  0  0  0  0  0  0  0  0
    1.0899   -9.8828    6.7165 H   0  0  0  0  0  0  0  0  0  0  0  0
   -0.0677   -8.1939    4.4791 H   0  0  0  0  0  0  0  0  0  0  0  0
    1.0474   -7.6733    5.7367 H   0  0  0  0  0  0  0  0  0  0  0  0
    2.5519   -8.9410    0.8284 H   0  0  0  0  0  0  0  0  0  0  0  0
    3.0289   -8.1595    2.2926 H   0  0  0  0  0  0  0  0  0  0  0  0
    4.4836   -7.3965    0.5009 H   0  0  0  0  0  0  0  0  0  0  0  0
    4.9237   -9.0276    0.0773 H   0  0  0  0  0  0  0  0  0  0  0  0
    4.6284   -7.4418    3.6398 H   0  0  0  0  0  0  0  0  0  0  0  0
    5.2792   -6.2989    2.4984 H   0  0  0  0  0  0  0  0  0  0  0  0
    3.7853  -10.8828    1.4447 H   0  0  0  0  0  0  0  0  0  0  0  0
  1  2  1  0
  1 23  1  0
  1 24  1  0
  1 25  1  0
  2  7  2  0
  2  3  1  0
  3  4  2  0
  4  5  1  0
  4 26  1  0
  5 22  1  0
  5  6  2  0
  6  7  1  0
  6  8  1  0
  8  9  1  0
  8 27  1  0
 10  9  1  6
  9 28  1  0
  9 29  1  0
 10 21  1  0
 10 11  1  0
 10 22  1  0
 11 12  1  0
 11 30  1  0
 11 31  1  0
 12 13  1  0
 12 32  1  0
 12 33  1  0
 13 14  1  0
 13 20  1  0
 13 49  1  6
 14 15  1  0
 14 34  1  0
 14 35  1  0
 15 19  1  0
 15 16  1  0
 15 36  1  1
 16 17  1  0
 16 37  1  0
 16 38  1  0
 17 18  1  0
 17 39  1  0
 17 40  1  0
 18 19  1  0
 18 41  1  0
 18 42  1  0
 20 21  1  0
 20 43  1  0
 20 44  1  0
 21 45  1  0
 21 46  1  0
 22 47  1  0
 22 48  1  0
M  CHG  1  13   1
M  END
>  <i_m_ct_stereo_status>  (58) 
1

>  <s_m_source_file>  (58) 
/var/tmp/pbs.5076255.sched01/tmpuvpulguu/0mmv31ww_.sdf

>  <i_m_source_file_index>  (58) 
33

>  <i_lp_mmshare_version>  (58) 
48012

>  <i_f3d_flags>  (58) 
0

>  <s_epik_input>  (58) 
W0NIM11jKG4xKW5bY0hdYyhbQ0gyXTIpYzFbTkhdW0NIMl1DMjNbQ0gyXVtDSDJdTihbQ0gyXVtDSDJdMylbQ0gyXVtDQEBIXTRbQ0gyXVtDSDJdW0NIMl1PNA==

>  <s_epik_cmdline>  (58) 
J2VwaWtfcHl0aG9uJywgJy1waHQnLCAnMi4wJywgJy1waCcsICc3LjAnLCAnLXRuJywgJzgnLCAnLW1hJywgJzIwMCcsICctaW1hZScsICc8aW5maWxlLm1hZT4nLCAnLW9tYWUnLCAnPG91dGZpbGUubWFlPic=

>  <r_lp_tautomer_probability>  (58) 
1

>  <r_epik_Ionization_Penalty>  (58) 
0.137498

>  <r_epik_Ionization_Penalty_Charging>  (58) 
0.00740725

>  <r_epik_Ionization_Penalty_Neutral>  (58) 
0.130091

>  <r_epik_State_Penalty>  (58) 
0.119603

>  <r_epik_Charging_Adjusted_Penalty>  (58) 
0.127011

>  <i_epik_Tot_Q>  (58) 
1

>  <i_epik_Tot_abs_Q>  (58) 
1

>  <s_lp_Force_Field>  (58) 
OPLS3e

>  <r_lp_Energy>  (58) 
38.1096

>  <b_lp_Chiralities_Consistent>  (58) 
1

>  <s_lp_Variant>  (58) 
20:0-1

>  <s_i_glide_gridfile>  (58) 
pfpi4k_grid

>  <i_i_glide_lignum>  (58) 
33

>  <i_i_glide_rotatable_bonds>  (58) 
2

>  <r_i_docking_score>  (58) 
-3.67675

>  <r_i_glide_ligand_efficiency>  (58) 
-0.167125

>  <r_i_glide_ligand_efficiency_sa>  (58) 
-0.468291

>  <r_i_glide_ligand_efficiency_ln>  (58) 
-0.898733

>  <r_i_glide_gscore>  (58) 
-3.67675

>  <r_i_glide_lipo>  (58) 
-0.261425

>  <r_i_glide_hbond>  (58) 
-0.36

>  <r_i_glide_metal>  (58) 
-0

>  <r_i_glide_rewards>  (58) 
-1.38197

>  <r_i_glide_evdw>  (58) 
-16.1813

>  <r_i_glide_ecoul>  (58) 
-7.50446

>  <r_i_glide_erotb>  (58) 
0.400302

>  <r_i_glide_esite>  (58) 
-0.138923

>  <r_i_glide_emodel>  (58) 
-26.3441

>  <r_i_glide_energy>  (58) 
-23.6858

>  <r_i_glide_einternal>  (58) 
10.0679

>  <r_i_glide_intrahb_reward>  (58) 
-0

>  <i_i_glide_confnum>  (58) 
3

>  <i_i_glide_posenum>  (58) 
4

>  <r_i_glide_eff_state_penalty>  (58) 
0

>  <ligand_id>  (58) 
20

>  <original_smiles>  (58) 
Cc1ncc2c(n1)NCC1(CCN(CC3CCCO3)CC1)C2

>  <smiles>  (58) 
[H]c1nc(C([H])([H])[H])nc2c1C([H])([H])C1(C([H])([H])N2[H])C([H])([H])C([H])([H])[N+]([H])(C([H])([H])C2([H])OC([H])([H])C([H])([H])C2([H])[H])C([H])([H])C1([H])[H]

$$$$
20:0:1
     RDKit          3D

 49 52  0  0  1  0  0  0  0  0999 V2000
   -1.4346   -8.7144    2.5288 C   0  0  0  0  0  0  0  0  0  0  0  0
   -0.1303   -7.9632    2.5632 C   0  0  0  0  0  0  0  0  0  0  0  0
   -0.1785   -6.6630    2.9055 N   0  0  0  0  0  0  0  0  0  0  0  0
    1.0042   -6.0277    2.9972 C   0  0  0  0  0  0  0  0  0  0  0  0
    2.2111   -6.6630    2.6895 C   0  0  0  0  0  0  0  0  0  0  0  0
    2.1437   -8.0236    2.3023 C   0  0  0  0  0  0  0  0  0  0  0  0
    0.9643   -8.6580    2.2600 N   0  0  0  0  0  0  0  0  0  0  0  0
    3.2761   -8.7280    1.9005 N   0  0  0  0  0  0  0  0  0  0  0  0
    4.5977   -8.1147    2.0910 C   0  0  0  0  0  0  0  0  0  0  0  0
    4.6032   -6.5884    1.8249 C   0  0  2  0  0  0  0  0  0  0  0  0
    4.3237   -6.3368    0.3193 C   0  0  0  0  0  0  0  0  0  0  0  0
    4.4086   -4.8601   -0.0405 C   0  0  0  0  0  0  0  0  0  0  0  0
    5.7261   -4.2749    0.3557 N   0  0  1  0  0  0  0  0  0  0  0  0
    5.8570   -2.8295   -0.0385 C   0  0  0  0  0  0  0  0  0  0  0  0
    4.5729   -2.0184    0.2336 C   0  0  2  0  0  0  0  0  0  0  0  0
    4.6966   -0.5398   -0.0647 C   0  0  0  0  0  0  0  0  0  0  0  0
    3.6314    0.0084    0.8932 C   0  0  0  0  0  0  0  0  0  0  0  0
    3.8023   -0.8789    2.1144 C   0  0  0  0  0  0  0  0  0  0  0  0
    4.2170   -2.1283    1.6088 O   0  0  0  0  0  0  0  0  0  0  0  0
    6.0662   -4.5046    1.7866 C   0  0  0  0  0  0  0  0  0  0  0  0
    5.9950   -5.9988    2.1506 C   0  0  0  0  0  0  0  0  0  0  0  0
    3.5465   -5.9513    2.7665 C   0  0  0  0  0  0  0  0  0  0  0  0
   -2.2432   -8.1231    2.9618 H   0  0  0  0  0  0  0  0  0  0  0  0
   -1.3540   -9.6473    3.0925 H   0  0  0  0  0  0  0  0  0  0  0  0
   -1.6894   -8.9561    1.4968 H   0  0  0  0  0  0  0  0  0  0  0  0
    0.9805   -4.9896    3.3096 H   0  0  0  0  0  0  0  0  0  0  0  0
    3.2037   -9.7236    1.7497 H   0  0  0  0  0  0  0  0  0  0  0  0
    4.9287   -8.3100    3.1103 H   0  0  0  0  0  0  0  0  0  0  0  0
    5.3151   -8.5884    1.4204 H   0  0  0  0  0  0  0  0  0  0  0  0
    5.0104   -6.9179   -0.3038 H   0  0  0  0  0  0  0  0  0  0  0  0
    3.3118   -6.6575    0.0676 H   0  0  0  0  0  0  0  0  0  0  0  0
    4.2200   -4.7281   -1.1010 H   0  0  0  0  0  0  0  0  0  0  0  0
    3.5701   -4.3874    0.4759 H   0  0  0  0  0  0  0  0  0  0  0  0
    6.7151   -2.3943    0.4673 H   0  0  0  0  0  0  0  0  0  0  0  0
    6.1097   -2.7953   -1.0961 H   0  0  0  0  0  0  0  0  0  0  0  0
    3.7327   -2.3715   -0.3712 H   0  0  0  0  0  0  0  0  0  0  0  0
    5.6908   -0.1783    0.1826 H   0  0  0  0  0  0  0  0  0  0  0  0
    4.5028   -0.3142   -1.1092 H   0  0  0  0  0  0  0  0  0  0  0  0
    3.7718    1.0612    1.1059 H   0  0  0  0  0  0  0  0  0  0  0  0
    2.6396   -0.1479    0.4774 H   0  0  0  0  0  0  0  0  0  0  0  0
    4.5917   -0.4929    2.7575 H   0  0  0  0  0  0  0  0  0  0  0  0
    2.9022   -0.9570    2.7201 H   0  0  0  0  0  0  0  0  0  0  0  0
    7.0657   -4.1307    2.0033 H   0  0  0  0  0  0  0  0  0  0  0  0
    5.3934   -3.9691    2.4567 H   0  0  0  0  0  0  0  0  0  0  0  0
    6.2110   -6.0997    3.2166 H   0  0  0  0  0  0  0  0  0  0  0  0
    6.7817   -6.5488    1.6296 H   0  0  0  0  0  0  0  0  0  0  0  0
    3.3713   -4.8859    2.6041 H   0  0  0  0  0  0  0  0  0  0  0  0
    3.8665   -6.0515    3.8088 H   0  0  0  0  0  0  0  0  0  0  0  0
    6.4183   -4.7795   -0.1697 H   0  0  0  0  0  0  0  0  0  0  0  0
  1  2  1  0
  1 23  1  0
  1 24  1  0
  1 25  1  0
  2  7  2  0
  2  3  1  0
  3  4  2  0
  4  5  1  0
  4 26  1  0
  5 22  1  0
  5  6  2  0
  6  7  1  0
  6  8  1  0
  8  9  1  0
  8 27  1  0
 10  9  1  6
  9 28  1  0
  9 29  1  0
 10 21  1  0
 10 11  1  0
 10 22  1  0
 11 12  1  0
 11 30  1  0
 11 31  1  0
 12 13  1  0
 12 32  1  0
 12 33  1  0
 13 14  1  0
 13 20  1  0
 13 49  1  6
 14 15  1  0
 14 34  1  0
 14 35  1  0
 15 19  1  0
 15 16  1  0
 15 36  1  6
 16 17  1  0
 16 37  1  0
 16 38  1  0
 17 18  1  0
 17 39  1  0
 17 40  1  0
 18 19  1  0
 18 41  1  0
 18 42  1  0
 20 21  1  0
 20 43  1  0
 20 44  1  0
 21 45  1  0
 21 46  1  0
 22 47  1  0
 22 48  1  0
M  CHG  1  13   1
M  END
>  <i_m_ct_stereo_status>  (59) 
1

>  <s_m_source_file>  (59) 
/var/tmp/pbs.5076255.sched01/tmpuvpulguu/0mmv31ww_.sdf

>  <i_m_source_file_index>  (59) 
33

>  <i_lp_mmshare_version>  (59) 
48012

>  <i_f3d_flags>  (59) 
0

>  <s_epik_input>  (59) 
W0NIM11jKG4xKW5bY0hdYyhbQ0gyXTIpYzFbTkhdW0NIMl1DMjNbQ0gyXVtDSDJdTihbQ0gyXVtDSDJdMylbQ0gyXVtDQEBIXTRbQ0gyXVtDSDJdW0NIMl1PNA==

>  <s_epik_cmdline>  (59) 
J2VwaWtfcHl0aG9uJywgJy1waHQnLCAnMi4wJywgJy1waCcsICc3LjAnLCAnLXRuJywgJzgnLCAnLW1hJywgJzIwMCcsICctaW1hZScsICc8aW5maWxlLm1hZT4nLCAnLW9tYWUnLCAnPG91dGZpbGUubWFlPic=

>  <r_lp_tautomer_probability>  (59) 
1

>  <r_epik_Ionization_Penalty>  (59) 
0.137498

>  <r_epik_Ionization_Penalty_Charging>  (59) 
0.00740725

>  <r_epik_Ionization_Penalty_Neutral>  (59) 
0.130091

>  <r_epik_State_Penalty>  (59) 
0.119603

>  <r_epik_Charging_Adjusted_Penalty>  (59) 
0.127011

>  <i_epik_Tot_Q>  (59) 
1

>  <i_epik_Tot_abs_Q>  (59) 
1

>  <s_lp_Force_Field>  (59) 
OPLS3e

>  <r_lp_Energy>  (59) 
38.1096

>  <b_lp_Chiralities_Consistent>  (59) 
1

>  <s_lp_Variant>  (59) 
20:0-1

>  <s_i_glide_gridfile>  (59) 
pfpi4k_grid

>  <i_i_glide_lignum>  (59) 
33

>  <i_i_glide_rotatable_bonds>  (59) 
2

>  <r_i_docking_score>  (59) 
-3.35724

>  <r_i_glide_ligand_efficiency>  (59) 
-0.152602

>  <r_i_glide_ligand_efficiency_sa>  (59) 
-0.427596

>  <r_i_glide_ligand_efficiency_ln>  (59) 
-0.820631

>  <r_i_glide_gscore>  (59) 
-3.35724

>  <r_i_glide_lipo>  (59) 
-0.414816

>  <r_i_glide_hbond>  (59) 
-0.16

>  <r_i_glide_metal>  (59) 
-0

>  <r_i_glide_rewards>  (59) 
-1.3403

>  <r_i_glide_evdw>  (59) 
-21.0026

>  <r_i_glide_ecoul>  (59) 
-4.77047

>  <r_i_glide_erotb>  (59) 
0.400302

>  <r_i_glide_esite>  (59) 
-0.0767222

>  <r_i_glide_emodel>  (59) 
-27.6947

>  <r_i_glide_energy>  (59) 
-25.7731

>  <r_i_glide_einternal>  (59) 
10.1589

>  <r_i_glide_intrahb_reward>  (59) 
-0

>  <i_i_glide_confnum>  (59) 
3

>  <i_i_glide_posenum>  (59) 
5

>  <r_i_glide_eff_state_penalty>  (59) 
0

>  <ligand_id>  (59) 
20

>  <original_smiles>  (59) 
Cc1ncc2c(n1)NCC1(CCN(CC3CCCO3)CC1)C2

>  <smiles>  (59) 
[H]c1nc(C([H])([H])[H])nc2c1C([H])([H])C1(C([H])([H])N2[H])C([H])([H])C([H])([H])[N+]([H])(C([H])([H])C2([H])OC([H])([H])C([H])([H])C2([H])[H])C([H])([H])C1([H])[H]

$$$$
20:0:2
     RDKit          3D

 49 52  0  0  1  0  0  0  0  0999 V2000
    6.6973   -2.6893    0.4034 C   0  0  0  0  0  0  0  0  0  0  0  0
    6.2537   -4.1143    0.6359 C   0  0  0  0  0  0  0  0  0  0  0  0
    4.9715   -4.3941    0.3816 N   0  0  0  0  0  0  0  0  0  0  0  0
    4.5742   -5.6665    0.5742 C   0  0  0  0  0  0  0  0  0  0  0  0
    5.4765   -6.6510    1.0157 C   0  0  0  0  0  0  0  0  0  0  0  0
    6.8057   -6.2430    1.2596 C   0  0  0  0  0  0  0  0  0  0  0  0
    7.1907   -4.9647    1.0624 N   0  0  0  0  0  0  0  0  0  0  0  0
    7.7630   -7.1364    1.7368 N   0  0  0  0  0  0  0  0  0  0  0  0
    7.4186   -8.5557    1.8146 C   0  0  0  0  0  0  0  0  0  0  0  0
    5.9618   -8.8197    2.2365 C   0  0  2  0  0  0  0  0  0  0  0  0
    5.7700   -8.3492    3.7004 C   0  0  0  0  0  0  0  0  0  0  0  0
    4.3680   -8.6819    4.2005 C   0  0  0  0  0  0  0  0  0  0  0  0
    4.0502  -10.1367    4.0773 N   0  0  1  0  0  0  0  0  0  0  0  0
    2.7132  -10.4885    4.6306 C   0  0  0  0  0  0  0  0  0  0  0  0
    1.6215   -9.4597    4.2575 C   0  0  2  0  0  0  0  0  0  0  0  0
    0.2364   -9.7719    4.7938 C   0  0  0  0  0  0  0  0  0  0  0  0
   -0.6262   -9.0536    3.7642 C   0  0  0  0  0  0  0  0  0  0  0  0
    0.1296   -9.3336    2.4789 C   0  0  0  0  0  0  0  0  0  0  0  0
    1.4963   -9.3786    2.8424 O   0  0  0  0  0  0  0  0  0  0  0  0
    4.2528  -10.6559    2.6959 C   0  0  0  0  0  0  0  0  0  0  0  0
    5.6709  -10.3349    2.1832 C   0  0  0  0  0  0  0  0  0  0  0  0
    5.0535   -8.0896    1.2116 C   0  0  0  0  0  0  0  0  0  0  0  0
    5.9088   -2.1163   -0.0828 H   0  0  0  0  0  0  0  0  0  0  0  0
    7.5843   -2.6773   -0.2287 H   0  0  0  0  0  0  0  0  0  0  0  0
    6.9321   -2.2229    1.3578 H   0  0  0  0  0  0  0  0  0  0  0  0
    3.5463   -5.8970    0.3679 H   0  0  0  0  0  0  0  0  0  0  0  0
    8.7491   -6.8737    1.7378 H   0  0  0  0  0  0  0  0  0  0  0  0
    7.6038   -9.0015    0.8365 H   0  0  0  0  0  0  0  0  0  0  0  0
    8.0830   -9.0295    2.5354 H   0  0  0  0  0  0  0  0  0  0  0  0
    6.5245   -8.7994    4.3573 H   0  0  0  0  0  0  0  0  0  0  0  0
    5.9150   -7.2681    3.7828 H   0  0  0  0  0  0  0  0  0  0  0  0
    4.2620   -8.3423    5.2298 H   0  0  0  0  0  0  0  0  0  0  0  0
    3.6795   -8.0666    3.6138 H   0  0  0  0  0  0  0  0  0  0  0  0
    2.4308  -11.4922    4.3107 H   0  0  0  0  0  0  0  0  0  0  0  0
    2.7963  -10.5580    5.7159 H   0  0  0  0  0  0  0  0  0  0  0  0
    1.8632   -8.4607    4.6274 H   0  0  0  0  0  0  0  0  0  0  0  0
    0.0809  -10.8524    4.8067 H   0  0  0  0  0  0  0  0  0  0  0  0
    0.1077   -9.4044    5.8101 H   0  0  0  0  0  0  0  0  0  0  0  0
   -1.6474   -9.4144    3.7188 H   0  0  0  0  0  0  0  0  0  0  0  0
   -0.6325   -7.9822    3.9534 H   0  0  0  0  0  0  0  0  0  0  0  0
   -0.1573  -10.3103    2.0874 H   0  0  0  0  0  0  0  0  0  0  0  0
   -0.0541   -8.5945    1.6960 H   0  0  0  0  0  0  0  0  0  0  0  0
    4.0867  -11.7340    2.6641 H   0  0  0  0  0  0  0  0  0  0  0  0
    3.5340  -10.2243    1.9974 H   0  0  0  0  0  0  0  0  0  0  0  0
    5.7651  -10.6840    1.1521 H   0  0  0  0  0  0  0  0  0  0  0  0
    6.4114  -10.9014    2.7559 H   0  0  0  0  0  0  0  0  0  0  0  0
    3.9924   -8.1186    1.4483 H   0  0  0  0  0  0  0  0  0  0  0  0
    5.1456   -8.5674    0.2349 H   0  0  0  0  0  0  0  0  0  0  0  0
    4.7259  -10.6256    4.6442 H   0  0  0  0  0  0  0  0  0  0  0  0
  1  2  1  0
  1 23  1  0
  1 24  1  0
  1 25  1  0
  2  7  2  0
  2  3  1  0
  3  4  2  0
  4  5  1  0
  4 26  1  0
  5 22  1  0
  5  6  2  0
  6  7  1  0
  6  8  1  0
  8  9  1  0
  8 27  1  0
 10  9  1  6
  9 28  1  0
  9 29  1  0
 10 21  1  0
 10 11  1  0
 10 22  1  0
 11 12  1  0
 11 30  1  0
 11 31  1  0
 12 13  1  0
 12 32  1  0
 12 33  1  0
 13 14  1  0
 13 20  1  0
 13 49  1  1
 14 15  1  0
 14 34  1  0
 14 35  1  0
 15 19  1  0
 15 16  1  0
 15 36  1  1
 16 17  1  0
 16 37  1  0
 16 38  1  0
 17 18  1  0
 17 39  1  0
 17 40  1  0
 18 19  1  0
 18 41  1  0
 18 42  1  0
 20 21  1  0
 20 43  1  0
 20 44  1  0
 21 45  1  0
 21 46  1  0
 22 47  1  0
 22 48  1  0
M  CHG  1  13   1
M  END
>  <i_m_ct_stereo_status>  (60) 
1

>  <s_m_source_file>  (60) 
/var/tmp/pbs.5076255.sched01/tmpuvpulguu/0mmv31ww_.sdf

>  <i_m_source_file_index>  (60) 
33

>  <i_lp_mmshare_version>  (60) 
48012

>  <i_f3d_flags>  (60) 
0

>  <s_epik_input>  (60) 
W0NIM11jKG4xKW5bY0hdYyhbQ0gyXTIpYzFbTkhdW0NIMl1DMjNbQ0gyXVtDSDJdTihbQ0gyXVtDSDJdMylbQ0gyXVtDQEBIXTRbQ0gyXVtDSDJdW0NIMl1PNA==

>  <s_epik_cmdline>  (60) 
J2VwaWtfcHl0aG9uJywgJy1waHQnLCAnMi4wJywgJy1waCcsICc3LjAnLCAnLXRuJywgJzgnLCAnLW1hJywgJzIwMCcsICctaW1hZScsICc8aW5maWxlLm1hZT4nLCAnLW9tYWUnLCAnPG91dGZpbGUubWFlPic=

>  <r_lp_tautomer_probability>  (60) 
1

>  <r_epik_Ionization_Penalty>  (60) 
0.137498

>  <r_epik_Ionization_Penalty_Charging>  (60) 
0.00740725

>  <r_epik_Ionization_Penalty_Neutral>  (60) 
0.130091

>  <r_epik_State_Penalty>  (60) 
0.119603

>  <r_epik_Charging_Adjusted_Penalty>  (60) 
0.127011

>  <i_epik_Tot_Q>  (60) 
1

>  <i_epik_Tot_abs_Q>  (60) 
1

>  <s_lp_Force_Field>  (60) 
OPLS3e

>  <r_lp_Energy>  (60) 
38.1096

>  <b_lp_Chiralities_Consistent>  (60) 
1

>  <s_lp_Variant>  (60) 
20:0-1

>  <s_i_glide_gridfile>  (60) 
pfpi4k_grid

>  <i_i_glide_lignum>  (60) 
33

>  <i_i_glide_rotatable_bonds>  (60) 
2

>  <r_i_docking_score>  (60) 
-3.11875

>  <r_i_glide_ligand_efficiency>  (60) 
-0.141761

>  <r_i_glide_ligand_efficiency_sa>  (60) 
-0.397221

>  <r_i_glide_ligand_efficiency_ln>  (60) 
-0.762336

>  <r_i_glide_gscore>  (60) 
-3.11875

>  <r_i_glide_lipo>  (60) 
-0.470449

>  <r_i_glide_hbond>  (60) 
-0.0192066

>  <r_i_glide_metal>  (60) 
-0

>  <r_i_glide_rewards>  (60) 
-1.47184

>  <r_i_glide_evdw>  (60) 
-19.545

>  <r_i_glide_ecoul>  (60) 
-3.57927

>  <r_i_glide_erotb>  (60) 
0.400302

>  <r_i_glide_esite>  (60) 
-0.0434124

>  <r_i_glide_emodel>  (60) 
-24.5873

>  <r_i_glide_energy>  (60) 
-23.1243

>  <r_i_glide_einternal>  (60) 
10.0411

>  <r_i_glide_intrahb_reward>  (60) 
-0

>  <i_i_glide_confnum>  (60) 
3

>  <i_i_glide_posenum>  (60) 
23

>  <r_i_glide_eff_state_penalty>  (60) 
0

>  <ligand_id>  (60) 
20

>  <original_smiles>  (60) 
Cc1ncc2c(n1)NCC1(CCN(CC3CCCO3)CC1)C2

>  <smiles>  (60) 
[H]c1nc(C([H])([H])[H])nc2c1C([H])([H])C1(C([H])([H])N2[H])C([H])([H])C([H])([H])[N+]([H])(C([H])([H])C2([H])OC([H])([H])C([H])([H])C2([H])[H])C([H])([H])C1([H])[H]

$$$$
20:1:0
     RDKit          3D

 50 53  0  0  1  0  0  0  0  0999 V2000
   -4.0634    4.4381    2.2115 C   0  0  0  0  0  0  0  0  0  0  0  0
   -2.8413    3.8450    2.8815 C   0  0  0  0  0  0  0  0  0  0  0  0
   -2.8545    2.5613    3.2292 N   0  0  0  0  0  0  0  0  0  0  0  0
   -1.7842    2.0123    3.8379 C   0  0  0  0  0  0  0  0  0  0  0  0
   -0.6524    2.7996    4.1039 C   0  0  0  0  0  0  0  0  0  0  0  0
   -0.7048    4.1569    3.7139 C   0  0  0  0  0  0  0  0  0  0  0  0
   -1.8043    4.6607    3.1370 N   0  0  0  0  0  0  0  0  0  0  0  0
    0.3823    5.0135    3.9173 N   0  0  0  0  0  0  0  0  0  0  0  0
    1.5543    4.5269    4.6539 C   0  0  0  0  0  0  0  0  0  0  0  0
    1.8385    3.0072    4.4643 C   0  0  2  0  0  0  0  0  0  0  0  0
    2.9928    2.5488    5.3997 C   0  0  0  0  0  0  0  0  0  0  0  0
    3.4416    1.0932    5.1103 C   0  0  0  0  0  0  0  0  0  0  0  0
    3.8037    0.9109    3.6719 N   0  0  1  0  0  0  0  0  0  0  0  0
    4.3166   -0.4560    3.3987 C   0  0  0  0  0  0  0  0  0  0  0  0
    5.0281   -0.6127    2.0360 C   0  0  2  0  0  0  0  0  0  0  0  0
    4.1493   -0.4711    0.7953 C   0  0  0  0  0  0  0  0  0  0  0  0
    4.8235   -1.3334   -0.2172 C   0  0  0  0  0  0  0  0  0  0  0  0
    5.3399   -2.4805    0.6371 C   0  0  0  0  0  0  0  0  0  0  0  0
    5.5677   -1.9278    1.9369 O   0  0  0  0  0  0  0  0  0  0  0  0
    2.6792    1.3142    2.7613 C   0  0  0  0  0  0  0  0  0  0  0  0
    2.2644    2.7461    3.0119 C   0  0  0  0  0  0  0  0  0  0  0  0
    0.5507    2.2325    4.8134 C   0  0  0  0  0  0  0  0  0  0  0  0
   -3.9302    5.5062    2.0340 H   0  0  0  0  0  0  0  0  0  0  0  0
   -4.9407    4.2888    2.8393 H   0  0  0  0  0  0  0  0  0  0  0  0
   -4.2586    3.9424    1.2655 H   0  0  0  0  0  0  0  0  0  0  0  0
   -1.8759    0.9678    4.1065 H   0  0  0  0  0  0  0  0  0  0  0  0
    0.3464    5.9734    3.5784 H   0  0  0  0  0  0  0  0  0  0  0  0
    2.4511    5.0784    4.3442 H   0  0  0  0  0  0  0  0  0  0  0  0
    1.3840    4.7250    5.7231 H   0  0  0  0  0  0  0  0  0  0  0  0
    3.8548    3.2058    5.2663 H   0  0  0  0  0  0  0  0  0  0  0  0
    2.6913    2.6406    6.4557 H   0  0  0  0  0  0  0  0  0  0  0  0
    4.2545    0.8195    5.7898 H   0  0  0  0  0  0  0  0  0  0  0  0
    2.6311    0.3983    5.3426 H   0  0  0  0  0  0  0  0  0  0  0  0
    5.0332   -0.7385    4.1769 H   0  0  0  0  0  0  0  0  0  0  0  0
    3.5074   -1.1824    3.5012 H   0  0  0  0  0  0  0  0  0  0  0  0
    5.8554    0.0907    1.9651 H   0  0  0  0  0  0  0  0  0  0  0  0
    3.1380   -0.8353    0.9795 H   0  0  0  0  0  0  0  0  0  0  0  0
    4.0982    0.5399    0.3946 H   0  0  0  0  0  0  0  0  0  0  0  0
    4.1442   -1.6342   -1.0136 H   0  0  0  0  0  0  0  0  0  0  0  0
    5.6423   -0.7705   -0.6575 H   0  0  0  0  0  0  0  0  0  0  0  0
    4.5554   -3.2338    0.7332 H   0  0  0  0  0  0  0  0  0  0  0  0
    6.2366   -2.9473    0.2117 H   0  0  0  0  0  0  0  0  0  0  0  0
    2.9326    1.3955    1.7019 H   0  0  0  0  0  0  0  0  0  0  0  0
    1.8320    0.6308    2.9150 H   0  0  0  0  0  0  0  0  0  0  0  0
    1.4799    2.9928    2.2970 H   0  0  0  0  0  0  0  0  0  0  0  0
    3.0973    3.3997    2.7590 H   0  0  0  0  0  0  0  0  0  0  0  0
    0.3464    2.3282    5.8831 H   0  0  0  0  0  0  0  0  0  0  0  0
    0.6131    1.1612    4.6072 H   0  0  0  0  0  0  0  0  0  0  0  0
    4.5555    1.5747    3.5023 H   0  0  0  0  0  0  0  0  0  0  0  0
   -3.6545    1.9340    3.0236 H   0  0  0  0  0  0  0  0  0  0  0  0
  1  2  1  0
  1 23  1  0
  1 24  1  0
  1 25  1  0
  2  7  2  0
  2  3  1  0
  3  4  2  0
  3 50  1  0
  4  5  1  0
  4 26  1  0
  5 22  1  0
  5  6  2  0
  6  7  1  0
  6  8  1  0
  8  9  1  0
  8 27  1  0
 10  9  1  6
  9 28  1  0
  9 29  1  0
 10 21  1  0
 10 11  1  0
 10 22  1  0
 11 12  1  0
 11 30  1  0
 11 31  1  0
 12 13  1  0
 12 32  1  0
 12 33  1  0
 13 14  1  0
 13 20  1  0
 13 49  1  6
 14 15  1  0
 14 34  1  0
 14 35  1  0
 15 19  1  0
 15 16  1  0
 15 36  1  6
 16 17  1  0
 16 37  1  0
 16 38  1  0
 17 18  1  0
 17 39  1  0
 17 40  1  0
 18 19  1  0
 18 41  1  0
 18 42  1  0
 20 21  1  0
 20 43  1  0
 20 44  1  0
 21 45  1  0
 21 46  1  0
 22 47  1  0
 22 48  1  0
M  CHG  2   3   1  13   1
M  END
>  <i_m_ct_stereo_status>  (61) 
1

>  <s_m_source_file>  (61) 
/var/tmp/pbs.5076255.sched01/tmpuvpulguu/0mmv31ww_.sdf

>  <i_m_source_file_index>  (61) 
34

>  <i_lp_mmshare_version>  (61) 
48012

>  <i_f3d_flags>  (61) 
0

>  <s_epik_input>  (61) 
W0NIM11jKG4xKW5bY0hdYyhbQ0gyXTIpYzFbTkhdW0NIMl1DMjNbQ0gyXVtDSDJdTihbQ0gyXVtDSDJdMylbQ0gyXVtDQEBIXTRbQ0gyXVtDSDJdW0NIMl1PNA==

>  <s_epik_cmdline>  (61) 
J2VwaWtfcHl0aG9uJywgJy1waHQnLCAnMi4wJywgJy1waCcsICc3LjAnLCAnLXRuJywgJzgnLCAnLW1hJywgJzIwMCcsICctaW1hZScsICc8aW5maWxlLm1hZT4nLCAnLW9tYWUnLCAnPG91dGZpbGUubWFlPic=

>  <r_lp_tautomer_probability>  (61) 
0.999336

>  <r_epik_Ionization_Penalty>  (61) 
0.968763

>  <r_epik_Ionization_Penalty_Charging>  (61) 
0.968754

>  <r_epik_Ionization_Penalty_Neutral>  (61) 
9.14167e-06

>  <r_epik_State_Penalty>  (61) 
1.01017

>  <r_epik_Charging_Adjusted_Penalty>  (61) 
1.97892

>  <i_epik_Tot_Q>  (61) 
2

>  <i_epik_Tot_abs_Q>  (61) 
2

>  <s_lp_Force_Field>  (61) 
OPLS3e

>  <r_lp_Energy>  (61) 
45.7161

>  <b_lp_Chiralities_Consistent>  (61) 
1

>  <s_lp_Variant>  (61) 
20:0-2

>  <s_i_glide_gridfile>  (61) 
pfpi4k_grid

>  <i_i_glide_lignum>  (61) 
34

>  <i_i_glide_rotatable_bonds>  (61) 
2

>  <r_i_docking_score>  (61) 
-4.21262

>  <r_i_glide_ligand_efficiency>  (61) 
-0.191483

>  <r_i_glide_ligand_efficiency_sa>  (61) 
-0.536542

>  <r_i_glide_ligand_efficiency_ln>  (61) 
-1.02972

>  <r_i_glide_gscore>  (61) 
-4.21262

>  <r_i_glide_lipo>  (61) 
-0.335917

>  <r_i_glide_hbond>  (61) 
-0.2

>  <r_i_glide_metal>  (61) 
-0

>  <r_i_glide_rewards>  (61) 
-1.33343

>  <r_i_glide_evdw>  (61) 
-17.3514

>  <r_i_glide_ecoul>  (61) 
-11.2318

>  <r_i_glide_erotb>  (61) 
0.397983

>  <r_i_glide_esite>  (61) 
-0.188915

>  <r_i_glide_emodel>  (61) 
-37.0916

>  <r_i_glide_energy>  (61) 
-28.5832

>  <r_i_glide_einternal>  (61) 
1.11489

>  <r_i_glide_intrahb_reward>  (61) 
-0

>  <i_i_glide_confnum>  (61) 
4

>  <i_i_glide_posenum>  (61) 
24

>  <r_i_glide_eff_state_penalty>  (61) 
0

>  <ligand_id>  (61) 
20

>  <original_smiles>  (61) 
Cc1ncc2c(n1)NCC1(CCN(CC3CCCO3)CC1)C2

>  <smiles>  (61) 
[H]c1c2c(nc(C([H])([H])[H])[n+]1[H])N([H])C([H])([H])C1(C2([H])[H])C([H])([H])C([H])([H])[N+]([H])(C([H])([H])C2([H])OC([H])([H])C([H])([H])C2([H])[H])C([H])([H])C1([H])[H]

$$$$
20:1:1
     RDKit          3D

 50 53  0  0  1  0  0  0  0  0999 V2000
    1.2953  -11.3133    3.3564 C   0  0  0  0  0  0  0  0  0  0  0  0
    2.1612  -10.1222    3.0004 C   0  0  0  0  0  0  0  0  0  0  0  0
    3.1300  -10.2599    2.0802 N   0  0  0  0  0  0  0  0  0  0  0  0
    3.9323   -9.2235    1.7660 C   0  0  0  0  0  0  0  0  0  0  0  0
    3.7422   -7.9902    2.3985 C   0  0  0  0  0  0  0  0  0  0  0  0
    2.6988   -7.9002    3.3389 C   0  0  0  0  0  0  0  0  0  0  0  0
    1.9225   -8.9585    3.6225 N   0  0  0  0  0  0  0  0  0  0  0  0
    2.4019   -6.6930    3.9779 N   0  0  0  0  0  0  0  0  0  0  0  0
    3.3198   -5.5612    3.8141 C   0  0  0  0  0  0  0  0  0  0  0  0
    3.9206   -5.4687    2.3908 C   0  0  2  0  0  0  0  0  0  0  0  0
    4.9550   -4.3223    2.3261 C   0  0  0  0  0  0  0  0  0  0  0  0
    5.4487   -4.0792    0.8867 C   0  0  0  0  0  0  0  0  0  0  0  0
    4.3177   -3.7857   -0.0341 N   0  0  1  0  0  0  0  0  0  0  0  0
    4.8017   -3.4763   -1.3997 C   0  0  0  0  0  0  0  0  0  0  0  0
    3.7490   -2.7468   -2.2477 C   0  0  2  0  0  0  0  0  0  0  0  0
    4.0753   -2.7784   -3.7321 C   0  0  0  0  0  0  0  0  0  0  0  0
    3.3923   -1.5216   -4.2028 C   0  0  0  0  0  0  0  0  0  0  0  0
    3.6468   -0.5748   -3.0442 C   0  0  0  0  0  0  0  0  0  0  0  0
    3.7595   -1.3773   -1.8840 O   0  0  0  0  0  0  0  0  0  0  0  0
    3.3259   -4.8965   -0.0317 C   0  0  0  0  0  0  0  0  0  0  0  0
    2.7873   -5.1584    1.3749 C   0  0  0  0  0  0  0  0  0  0  0  0
    4.6347   -6.8084    2.0984 C   0  0  0  0  0  0  0  0  0  0  0  0
    0.5927  -11.0703    4.1569 H   0  0  0  0  0  0  0  0  0  0  0  0
    1.9179  -12.1414    3.6928 H   0  0  0  0  0  0  0  0  0  0  0  0
    0.7221  -11.6329    2.4882 H   0  0  0  0  0  0  0  0  0  0  0  0
    4.6857   -9.4349    1.0201 H   0  0  0  0  0  0  0  0  0  0  0  0
    1.7624   -6.7061    4.7550 H   0  0  0  0  0  0  0  0  0  0  0  0
    2.7938   -4.6318    4.0440 H   0  0  0  0  0  0  0  0  0  0  0  0
    4.1261   -5.6570    4.5474 H   0  0  0  0  0  0  0  0  0  0  0  0
    4.5236   -3.4012    2.7152 H   0  0  0  0  0  0  0  0  0  0  0  0
    5.8109   -4.5454    2.9683 H   0  0  0  0  0  0  0  0  0  0  0  0
    6.1692   -3.2595    0.8914 H   0  0  0  0  0  0  0  0  0  0  0  0
    5.9905   -4.9506    0.5144 H   0  0  0  0  0  0  0  0  0  0  0  0
    5.6991   -2.8541   -1.3467 H   0  0  0  0  0  0  0  0  0  0  0  0
    5.1078   -4.4069   -1.8759 H   0  0  0  0  0  0  0  0  0  0  0  0
    2.7368   -3.1246   -2.1203 H   0  0  0  0  0  0  0  0  0  0  0  0
    5.1521   -2.7166   -3.8815 H   0  0  0  0  0  0  0  0  0  0  0  0
    3.7178   -3.6838   -4.2219 H   0  0  0  0  0  0  0  0  0  0  0  0
    3.7789   -1.1358   -5.1421 H   0  0  0  0  0  0  0  0  0  0  0  0
    2.3189   -1.6909   -4.3179 H   0  0  0  0  0  0  0  0  0  0  0  0
    4.5880   -0.0461   -3.1669 H   0  0  0  0  0  0  0  0  0  0  0  0
    2.8358    0.1367   -2.9605 H   0  0  0  0  0  0  0  0  0  0  0  0
    2.4681   -4.6910   -0.6722 H   0  0  0  0  0  0  0  0  0  0  0  0
    3.7900   -5.8041   -0.4173 H   0  0  0  0  0  0  0  0  0  0  0  0
    2.0588   -5.9728    1.3259 H   0  0  0  0  0  0  0  0  0  0  0  0
    2.2295   -4.2814    1.7061 H   0  0  0  0  0  0  0  0  0  0  0  0
    5.4991   -6.9082    2.7586 H   0  0  0  0  0  0  0  0  0  0  0  0
    5.0167   -6.8918    1.0794 H   0  0  0  0  0  0  0  0  0  0  0  0
    3.8566   -2.9559    0.3226 H   0  0  0  0  0  0  0  0  0  0  0  0
    3.3058  -11.1514    1.5872 H   0  0  0  0  0  0  0  0  0  0  0  0
  1  2  1  0
  1 23  1  0
  1 24  1  0
  1 25  1  0
  2  7  2  0
  2  3  1  0
  3  4  2  0
  3 50  1  0
  4  5  1  0
  4 26  1  0
  5 22  1  0
  5  6  2  0
  6  7  1  0
  6  8  1  0
  8  9  1  0
  8 27  1  0
 10  9  1  1
  9 28  1  0
  9 29  1  0
 10 21  1  0
 10 11  1  0
 10 22  1  0
 11 12  1  0
 11 30  1  0
 11 31  1  0
 12 13  1  0
 12 32  1  0
 12 33  1  0
 13 14  1  0
 13 20  1  0
 13 49  1  1
 14 15  1  0
 14 34  1  0
 14 35  1  0
 15 19  1  0
 15 16  1  0
 15 36  1  6
 16 17  1  0
 16 37  1  0
 16 38  1  0
 17 18  1  0
 17 39  1  0
 17 40  1  0
 18 19  1  0
 18 41  1  0
 18 42  1  0
 20 21  1  0
 20 43  1  0
 20 44  1  0
 21 45  1  0
 21 46  1  0
 22 47  1  0
 22 48  1  0
M  CHG  2   3   1  13   1
M  END
>  <i_m_ct_stereo_status>  (62) 
1

>  <s_m_source_file>  (62) 
/var/tmp/pbs.5076255.sched01/tmpuvpulguu/0mmv31ww_.sdf

>  <i_m_source_file_index>  (62) 
34

>  <i_lp_mmshare_version>  (62) 
48012

>  <i_f3d_flags>  (62) 
0

>  <s_epik_input>  (62) 
W0NIM11jKG4xKW5bY0hdYyhbQ0gyXTIpYzFbTkhdW0NIMl1DMjNbQ0gyXVtDSDJdTihbQ0gyXVtDSDJdMylbQ0gyXVtDQEBIXTRbQ0gyXVtDSDJdW0NIMl1PNA==

>  <s_epik_cmdline>  (62) 
J2VwaWtfcHl0aG9uJywgJy1waHQnLCAnMi4wJywgJy1waCcsICc3LjAnLCAnLXRuJywgJzgnLCAnLW1hJywgJzIwMCcsICctaW1hZScsICc8aW5maWxlLm1hZT4nLCAnLW9tYWUnLCAnPG91dGZpbGUubWFlPic=

>  <r_lp_tautomer_probability>  (62) 
0.999336

>  <r_epik_Ionization_Penalty>  (62) 
0.968763

>  <r_epik_Ionization_Penalty_Charging>  (62) 
0.968754

>  <r_epik_Ionization_Penalty_Neutral>  (62) 
9.14167e-06

>  <r_epik_State_Penalty>  (62) 
1.01017

>  <r_epik_Charging_Adjusted_Penalty>  (62) 
1.97892

>  <i_epik_Tot_Q>  (62) 
2

>  <i_epik_Tot_abs_Q>  (62) 
2

>  <s_lp_Force_Field>  (62) 
OPLS3e

>  <r_lp_Energy>  (62) 
45.7161

>  <b_lp_Chiralities_Consistent>  (62) 
1

>  <s_lp_Variant>  (62) 
20:0-2

>  <s_i_glide_gridfile>  (62) 
pfpi4k_grid

>  <i_i_glide_lignum>  (62) 
34

>  <i_i_glide_rotatable_bonds>  (62) 
2

>  <r_i_docking_score>  (62) 
-3.97995

>  <r_i_glide_ligand_efficiency>  (62) 
-0.180907

>  <r_i_glide_ligand_efficiency_sa>  (62) 
-0.506908

>  <r_i_glide_ligand_efficiency_ln>  (62) 
-0.972846

>  <r_i_glide_gscore>  (62) 
-3.97995

>  <r_i_glide_lipo>  (62) 
-0.622688

>  <r_i_glide_hbond>  (62) 
-0.2

>  <r_i_glide_metal>  (62) 
-0

>  <r_i_glide_rewards>  (62) 
-1.38809

>  <r_i_glide_evdw>  (62) 
-21.1521

>  <r_i_glide_ecoul>  (62) 
-6.87972

>  <r_i_glide_erotb>  (62) 
0.397983

>  <r_i_glide_esite>  (62) 
-0.0775881

>  <r_i_glide_emodel>  (62) 
-37.4113

>  <r_i_glide_energy>  (62) 
-28.0319

>  <r_i_glide_einternal>  (62) 
0.220322

>  <r_i_glide_intrahb_reward>  (62) 
-0

>  <i_i_glide_confnum>  (62) 
4

>  <i_i_glide_posenum>  (62) 
35

>  <r_i_glide_eff_state_penalty>  (62) 
0

>  <ligand_id>  (62) 
20

>  <original_smiles>  (62) 
Cc1ncc2c(n1)NCC1(CCN(CC3CCCO3)CC1)C2

>  <smiles>  (62) 
[H]c1c2c(nc(C([H])([H])[H])[n+]1[H])N([H])C([H])([H])C1(C2([H])[H])C([H])([H])C([H])([H])[N+]([H])(C([H])([H])C2([H])OC([H])([H])C([H])([H])C2([H])[H])C([H])([H])C1([H])[H]

$$$$
20:1:2
     RDKit          3D

 50 53  0  0  1  0  0  0  0  0999 V2000
    1.2457  -11.2457    3.3516 C   0  0  0  0  0  0  0  0  0  0  0  0
    2.1831  -10.1008    3.0356 C   0  0  0  0  0  0  0  0  0  0  0  0
    3.1181  -10.2510    2.0773 N   0  0  0  0  0  0  0  0  0  0  0  0
    3.9838   -9.2625    1.8016 C   0  0  0  0  0  0  0  0  0  0  0  0
    3.9052   -8.0555    2.5121 C   0  0  0  0  0  0  0  0  0  0  0  0
    2.8941   -7.9494    3.4881 C   0  0  0  0  0  0  0  0  0  0  0  0
    2.0510   -8.9624    3.7312 N   0  0  0  0  0  0  0  0  0  0  0  0
    2.7080   -6.7629    4.2082 N   0  0  0  0  0  0  0  0  0  0  0  0
    3.6985   -5.6920    4.0817 C   0  0  0  0  0  0  0  0  0  0  0  0
    4.2666   -5.5583    2.6496 C   0  0  2  0  0  0  0  0  0  0  0  0
    5.3773   -4.4857    2.6185 C   0  0  0  0  0  0  0  0  0  0  0  0
    5.8566   -4.1945    1.1820 C   0  0  0  0  0  0  0  0  0  0  0  0
    4.7286   -3.7745    0.3120 N   0  0  1  0  0  0  0  0  0  0  0  0
    5.1933   -3.4153   -1.0533 C   0  0  0  0  0  0  0  0  0  0  0  0
    4.3307   -2.3199   -1.6962 C   0  0  2  0  0  0  0  0  0  0  0  0
    2.9520   -2.7766   -2.1613 C   0  0  0  0  0  0  0  0  0  0  0  0
    2.6777   -1.8378   -3.2994 C   0  0  0  0  0  0  0  0  0  0  0  0
    4.0516   -1.7029   -3.9300 C   0  0  0  0  0  0  0  0  0  0  0  0
    4.9840   -1.8767   -2.8745 O   0  0  0  0  0  0  0  0  0  0  0  0
    3.6576   -4.8094    0.2843 C   0  0  0  0  0  0  0  0  0  0  0  0
    3.1355   -5.1073    1.6901 C   0  0  0  0  0  0  0  0  0  0  0  0
    4.8706   -6.9260    2.2556 C   0  0  0  0  0  0  0  0  0  0  0  0
    0.5858  -10.9999    4.1881 H   0  0  0  0  0  0  0  0  0  0  0  0
    1.8140  -12.1354    3.6208 H   0  0  0  0  0  0  0  0  0  0  0  0
    0.6273  -11.4702    2.4852 H   0  0  0  0  0  0  0  0  0  0  0  0
    4.7052   -9.4854    1.0284 H   0  0  0  0  0  0  0  0  0  0  0  0
    2.0851   -6.7754    5.0009 H   0  0  0  0  0  0  0  0  0  0  0  0
    3.2485   -4.7432    4.3808 H   0  0  0  0  0  0  0  0  0  0  0  0
    4.5146   -5.8866    4.7823 H   0  0  0  0  0  0  0  0  0  0  0  0
    5.0267   -3.5594    3.0736 H   0  0  0  0  0  0  0  0  0  0  0  0
    6.2277   -4.8087    3.2236 H   0  0  0  0  0  0  0  0  0  0  0  0
    6.6318   -3.4268    1.2200 H   0  0  0  0  0  0  0  0  0  0  0  0
    6.3236   -5.0771    0.7437 H   0  0  0  0  0  0  0  0  0  0  0  0
    6.2166   -3.0394   -1.0087 H   0  0  0  0  0  0  0  0  0  0  0  0
    5.2398   -4.3033   -1.6858 H   0  0  0  0  0  0  0  0  0  0  0  0
    4.2369   -1.4592   -1.0344 H   0  0  0  0  0  0  0  0  0  0  0  0
    2.9862   -3.8049   -2.5267 H   0  0  0  0  0  0  0  0  0  0  0  0
    2.1907   -2.7060   -1.3876 H   0  0  0  0  0  0  0  0  0  0  0  0
    1.9181   -2.2252   -3.9770 H   0  0  0  0  0  0  0  0  0  0  0  0
    2.3514   -0.8774   -2.8993 H   0  0  0  0  0  0  0  0  0  0  0  0
    4.2045   -2.5019   -4.6480 H   0  0  0  0  0  0  0  0  0  0  0  0
    4.1856   -0.7503   -4.4428 H   0  0  0  0  0  0  0  0  0  0  0  0
    2.7926   -4.5112   -0.2999 H   0  0  0  0  0  0  0  0  0  0  0  0
    4.0280   -5.7207   -0.1856 H   0  0  0  0  0  0  0  0  0  0  0  0
    2.3446   -5.8583    1.6134 H   0  0  0  0  0  0  0  0  0  0  0  0
    2.6501   -4.2114    2.0835 H   0  0  0  0  0  0  0  0  0  0  0  0
    5.7439   -7.1254    2.8795 H   0  0  0  0  0  0  0  0  0  0  0  0
    5.2169   -6.9720    1.2221 H   0  0  0  0  0  0  0  0  0  0  0  0
    4.3430   -2.9421    0.7382 H   0  0  0  0  0  0  0  0  0  0  0  0
    3.2316  -11.1343    1.5520 H   0  0  0  0  0  0  0  0  0  0  0  0
  1  2  1  0
  1 23  1  0
  1 24  1  0
  1 25  1  0
  2  7  2  0
  2  3  1  0
  3  4  2  0
  3 50  1  0
  4  5  1  0
  4 26  1  0
  5 22  1  0
  5  6  2  0
  6  7  1  0
  6  8  1  0
  8  9  1  0
  8 27  1  0
 10  9  1  1
  9 28  1  0
  9 29  1  0
 10 21  1  0
 10 11  1  0
 10 22  1  0
 11 12  1  0
 11 30  1  0
 11 31  1  0
 12 13  1  0
 12 32  1  0
 12 33  1  0
 13 14  1  0
 13 20  1  0
 13 49  1  1
 14 15  1  0
 14 34  1  0
 14 35  1  0
 15 19  1  0
 15 16  1  0
 15 36  1  1
 16 17  1  0
 16 37  1  0
 16 38  1  0
 17 18  1  0
 17 39  1  0
 17 40  1  0
 18 19  1  0
 18 41  1  0
 18 42  1  0
 20 21  1  0
 20 43  1  0
 20 44  1  0
 21 45  1  0
 21 46  1  0
 22 47  1  0
 22 48  1  0
M  CHG  2   3   1  13   1
M  END
>  <i_m_ct_stereo_status>  (63) 
1

>  <s_m_source_file>  (63) 
/var/tmp/pbs.5076255.sched01/tmpuvpulguu/0mmv31ww_.sdf

>  <i_m_source_file_index>  (63) 
34

>  <i_lp_mmshare_version>  (63) 
48012

>  <i_f3d_flags>  (63) 
0

>  <s_epik_input>  (63) 
W0NIM11jKG4xKW5bY0hdYyhbQ0gyXTIpYzFbTkhdW0NIMl1DMjNbQ0gyXVtDSDJdTihbQ0gyXVtDSDJdMylbQ0gyXVtDQEBIXTRbQ0gyXVtDSDJdW0NIMl1PNA==

>  <s_epik_cmdline>  (63) 
J2VwaWtfcHl0aG9uJywgJy1waHQnLCAnMi4wJywgJy1waCcsICc3LjAnLCAnLXRuJywgJzgnLCAnLW1hJywgJzIwMCcsICctaW1hZScsICc8aW5maWxlLm1hZT4nLCAnLW9tYWUnLCAnPG91dGZpbGUubWFlPic=

>  <r_lp_tautomer_probability>  (63) 
0.999336

>  <r_epik_Ionization_Penalty>  (63) 
0.968763

>  <r_epik_Ionization_Penalty_Charging>  (63) 
0.968754

>  <r_epik_Ionization_Penalty_Neutral>  (63) 
9.14167e-06

>  <r_epik_State_Penalty>  (63) 
1.01017

>  <r_epik_Charging_Adjusted_Penalty>  (63) 
1.97892

>  <i_epik_Tot_Q>  (63) 
2

>  <i_epik_Tot_abs_Q>  (63) 
2

>  <s_lp_Force_Field>  (63) 
OPLS3e

>  <r_lp_Energy>  (63) 
45.7161

>  <b_lp_Chiralities_Consistent>  (63) 
1

>  <s_lp_Variant>  (63) 
20:0-2

>  <s_i_glide_gridfile>  (63) 
pfpi4k_grid

>  <i_i_glide_lignum>  (63) 
34

>  <i_i_glide_rotatable_bonds>  (63) 
2

>  <r_i_docking_score>  (63) 
-3.83003

>  <r_i_glide_ligand_efficiency>  (63) 
-0.174092

>  <r_i_glide_ligand_efficiency_sa>  (63) 
-0.487813

>  <r_i_glide_ligand_efficiency_ln>  (63) 
-0.936199

>  <r_i_glide_gscore>  (63) 
-3.83003

>  <r_i_glide_lipo>  (63) 
-0.542657

>  <r_i_glide_hbond>  (63) 
-0.2

>  <r_i_glide_metal>  (63) 
-0

>  <r_i_glide_rewards>  (63) 
-1.38035

>  <r_i_glide_evdw>  (63) 
-19.3662

>  <r_i_glide_ecoul>  (63) 
-7.06779

>  <r_i_glide_erotb>  (63) 
0.397983

>  <r_i_glide_esite>  (63) 
-0.0765278

>  <r_i_glide_emodel>  (63) 
-34.7517

>  <r_i_glide_energy>  (63) 
-26.434

>  <r_i_glide_einternal>  (63) 
1.60879

>  <r_i_glide_intrahb_reward>  (63) 
-0

>  <i_i_glide_confnum>  (63) 
4

>  <i_i_glide_posenum>  (63) 
1

>  <r_i_glide_eff_state_penalty>  (63) 
0

>  <ligand_id>  (63) 
20

>  <original_smiles>  (63) 
Cc1ncc2c(n1)NCC1(CCN(CC3CCCO3)CC1)C2

>  <smiles>  (63) 
[H]c1c2c(nc(C([H])([H])[H])[n+]1[H])N([H])C([H])([H])C1(C2([H])[H])C([H])([H])C([H])([H])[N+]([H])(C([H])([H])C2([H])OC([H])([H])C([H])([H])C2([H])[H])C([H])([H])C1([H])[H]

$$$$
21:0:0
     RDKit          3D

 39 40  0  0  1  0  0  0  0  0999 V2000
    2.1055    0.5913    1.5685 C   0  0  0  0  0  0  0  0  0  0  0  0
    0.8766    1.3036    1.9741 N   0  0  0  0  0  0  0  0  0  0  0  0
    0.7263    1.3931    3.4380 C   0  0  0  0  0  0  0  0  0  0  0  0
   -0.7522    1.5181    3.8780 C   0  0  2  0  0  0  0  0  0  0  0  0
   -1.4197    2.7069    3.1522 C   0  0  0  0  0  0  0  0  0  0  0  0
   -2.8013    3.0203    3.7168 C   0  0  0  0  0  0  0  0  0  0  0  0
   -2.7095    3.3944    5.1906 C   0  0  0  0  0  0  0  0  0  0  0  0
   -1.8354    2.4742    6.0085 C   0  0  0  0  0  0  0  0  0  0  0  0
   -1.9456    2.5229    7.4037 C   0  0  0  0  0  0  0  0  0  0  0  0
   -1.1406    1.7065    8.2355 C   0  0  0  0  0  0  0  0  0  0  0  0
   -1.2078    1.7463    9.6107 O   0  0  0  0  0  0  0  0  0  0  0  0
   -2.1510    2.6230   10.2031 C   0  0  0  0  0  0  0  0  0  0  0  0
   -0.2307    0.8011    7.6392 C   0  0  0  0  0  0  0  0  0  0  0  0
    0.5292   -0.0168    8.4568 O   0  0  0  0  0  0  0  0  0  0  0  0
    1.4691   -0.8988    7.8384 C   0  0  0  0  0  0  0  0  0  0  0  0
   -0.1406    0.7513    6.2300 C   0  0  0  0  0  0  0  0  0  0  0  0
   -0.9133    1.5932    5.3987 C   0  0  0  0  0  0  0  0  0  0  0  0
    2.1599    0.5229    0.4825 H   0  0  0  0  0  0  0  0  0  0  0  0
    2.1135   -0.4340    1.9539 H   0  0  0  0  0  0  0  0  0  0  0  0
    2.9958    1.1049    1.9455 H   0  0  0  0  0  0  0  0  0  0  0  0
    0.8560    2.2422    1.5952 H   0  0  0  0  0  0  0  0  0  0  0  0
    1.1779    0.4959    3.8550 H   0  0  0  0  0  0  0  0  0  0  0  0
    1.3121    2.2316    3.8192 H   0  0  0  0  0  0  0  0  0  0  0  0
   -1.2874    0.6117    3.5790 H   0  0  0  0  0  0  0  0  0  0  0  0
   -0.7868    3.5921    3.2544 H   0  0  0  0  0  0  0  0  0  0  0  0
   -1.5060    2.5075    2.0826 H   0  0  0  0  0  0  0  0  0  0  0  0
   -3.2638    3.8225    3.1409 H   0  0  0  0  0  0  0  0  0  0  0  0
   -3.4358    2.1428    3.6126 H   0  0  0  0  0  0  0  0  0  0  0  0
   -2.2814    4.3895    5.2754 H   0  0  0  0  0  0  0  0  0  0  0  0
   -3.7024    3.4074    5.6362 H   0  0  0  0  0  0  0  0  0  0  0  0
   -2.6639    3.2204    7.8010 H   0  0  0  0  0  0  0  0  0  0  0  0
   -2.0979    2.5285   11.2831 H   0  0  0  0  0  0  0  0  0  0  0  0
   -3.1752    2.3911    9.9125 H   0  0  0  0  0  0  0  0  0  0  0  0
   -1.9216    3.6596    9.9675 H   0  0  0  0  0  0  0  0  0  0  0  0
    2.0142   -1.4785    8.5833 H   0  0  0  0  0  0  0  0  0  0  0  0
    2.2110   -0.3530    7.2516 H   0  0  0  0  0  0  0  0  0  0  0  0
    0.9694   -1.6136    7.1822 H   0  0  0  0  0  0  0  0  0  0  0  0
    0.5281    0.0547    5.7603 H   0  0  0  0  0  0  0  0  0  0  0  0
    0.0972    0.7940    1.5795 H   0  0  0  0  0  0  0  0  0  0  0  0
  1  2  1  0
  1 18  1  0
  1 19  1  0
  1 20  1  0
  2  3  1  0
  2 21  1  0
  2 39  1  0
  3  4  1  0
  3 22  1  0
  3 23  1  0
  4 17  1  0
  4  5  1  0
  4 24  1  6
  5  6  1  0
  5 25  1  0
  5 26  1  0
  6  7  1  0
  6 27  1  0
  6 28  1  0
  7  8  1  0
  7 29  1  0
  7 30  1  0
  8 17  2  0
  8  9  1  0
  9 10  2  0
  9 31  1  0
 10 11  1  0
 10 13  1  0
 11 12  1  0
 12 32  1  0
 12 33  1  0
 12 34  1  0
 13 14  1  0
 13 16  2  0
 14 15  1  0
 15 35  1  0
 15 36  1  0
 15 37  1  0
 16 17  1  0
 16 38  1  0
M  CHG  1   2   1
M  END
>  <i_m_ct_stereo_status>  (64) 
1

>  <s_m_source_file>  (64) 
/var/tmp/pbs.5076255.sched01/tmpuvpulguu/0mmv31ww_.sdf

>  <i_m_source_file_index>  (64) 
35

>  <i_lp_mmshare_version>  (64) 
48012

>  <i_f3d_flags>  (64) 
0

>  <s_epik_input>  (64) 
W0NIM11bTkhdW0NIMl1bQ0BIXShbQ0gyXVtDSDJdW0NIMl0xKWMoYzEyKVtjSF1jKE9bQ0gzXSljKFtjSF0yKU9bQ0gzXQ==

>  <s_epik_cmdline>  (64) 
J2VwaWtfcHl0aG9uJywgJy1waHQnLCAnMi4wJywgJy1waCcsICc3LjAnLCAnLXRuJywgJzgnLCAnLW1hJywgJzIwMCcsICctaW1hZScsICc8aW5maWxlLm1hZT4nLCAnLW9tYWUnLCAnPG91dGZpbGUubWFlPic=

>  <r_lp_tautomer_probability>  (64) 
1

>  <r_epik_Ionization_Penalty>  (64) 
0.000457176

>  <r_epik_Ionization_Penalty_Charging>  (64) 
0.000457176

>  <r_epik_Ionization_Penalty_Neutral>  (64) 
0

>  <r_epik_State_Penalty>  (64) 
0.000282725

>  <r_epik_Charging_Adjusted_Penalty>  (64) 
0.000739901

>  <i_epik_Tot_Q>  (64) 
1

>  <i_epik_Tot_abs_Q>  (64) 
1

>  <s_lp_Force_Field>  (64) 
OPLS3e

>  <r_lp_Energy>  (64) 
32.1788

>  <b_lp_Chiralities_Consistent>  (64) 
1

>  <s_lp_Variant>  (64) 
21:0-1

>  <s_i_glide_gridfile>  (64) 
pfpi4k_grid

>  <i_i_glide_lignum>  (64) 
35

>  <i_i_glide_rotatable_bonds>  (64) 
4

>  <r_i_docking_score>  (64) 
-3.13999

>  <r_i_glide_ligand_efficiency>  (64) 
-0.184705

>  <r_i_glide_ligand_efficiency_sa>  (64) 
-0.474929

>  <r_i_glide_ligand_efficiency_ln>  (64) 
-0.819152

>  <r_i_glide_gscore>  (64) 
-3.13999

>  <r_i_glide_lipo>  (64) 
-0.0560451

>  <r_i_glide_hbond>  (64) 
-0.0340512

>  <r_i_glide_metal>  (64) 
-0

>  <r_i_glide_rewards>  (64) 
-1.79775

>  <r_i_glide_evdw>  (64) 
-14.366

>  <r_i_glide_ecoul>  (64) 
-5.20524

>  <r_i_glide_erotb>  (64) 
0.308235

>  <r_i_glide_esite>  (64) 
-0.0612854

>  <r_i_glide_emodel>  (64) 
-24.41

>  <r_i_glide_energy>  (64) 
-19.5713

>  <r_i_glide_einternal>  (64) 
1.09161

>  <r_i_glide_intrahb_reward>  (64) 
-0

>  <i_i_glide_confnum>  (64) 
1

>  <i_i_glide_posenum>  (64) 
5

>  <r_i_glide_eff_state_penalty>  (64) 
0

>  <ligand_id>  (64) 
21

>  <original_smiles>  (64) 
CNCC1CCCc2cc(OC)c(OC)cc21

>  <smiles>  (64) 
[H]c1c(OC([H])([H])[H])c(OC([H])([H])[H])c([H])c2c1C([H])([H])C([H])([H])C([H])([H])C2([H])C([H])([H])[N+]([H])([H])C([H])([H])[H]

$$$$
21:0:1
     RDKit          3D

 39 40  0  0  1  0  0  0  0  0999 V2000
    2.1097    0.5173    1.5746 C   0  0  0  0  0  0  0  0  0  0  0  0
    0.7807    0.9991    1.9936 N   0  0  0  0  0  0  0  0  0  0  0  0
    0.6322    1.0764    3.4624 C   0  0  0  0  0  0  0  0  0  0  0  0
   -0.8182    1.4000    3.8919 C   0  0  2  0  0  0  0  0  0  0  0  0
   -1.3190    2.6587    3.1501 C   0  0  0  0  0  0  0  0  0  0  0  0
   -2.6431    3.1713    3.7055 C   0  0  0  0  0  0  0  0  0  0  0  0
   -2.4941    3.5554    5.1762 C   0  0  0  0  0  0  0  0  0  0  0  0
   -1.7505    2.5308    6.0071 C   0  0  0  0  0  0  0  0  0  0  0  0
   -1.8602    2.6217    7.4029 C   0  0  0  0  0  0  0  0  0  0  0  0
   -1.1813    1.7194    8.2534 C   0  0  0  0  0  0  0  0  0  0  0  0
   -1.3028    1.7470    9.6233 O   0  0  0  0  0  0  0  0  0  0  0  0
   -2.1684    2.7081   10.1995 C   0  0  0  0  0  0  0  0  0  0  0  0
   -0.3734    0.7147    7.6744 C   0  0  0  0  0  0  0  0  0  0  0  0
    0.2890   -0.2369    8.4148 O   0  0  0  0  0  0  0  0  0  0  0  0
    1.2204    0.2406    9.3833 C   0  0  0  0  0  0  0  0  0  0  0  0
   -0.2961    0.6010    6.2714 C   0  0  0  0  0  0  0  0  0  0  0  0
   -0.9557    1.5154    5.4170 C   0  0  0  0  0  0  0  0  0  0  0  0
    2.1578    0.4754    0.4883 H   0  0  0  0  0  0  0  0  0  0  0  0
    2.2976   -0.4892    1.9585 H   0  0  0  0  0  0  0  0  0  0  0  0
    2.8956    1.1825    1.9429 H   0  0  0  0  0  0  0  0  0  0  0  0
    0.6171    1.9210    1.6053 H   0  0  0  0  0  0  0  0  0  0  0  0
    0.9537    0.1192    3.8680 H   0  0  0  0  0  0  0  0  0  0  0  0
    1.3136    1.8327    3.8541 H   0  0  0  0  0  0  0  0  0  0  0  0
   -1.4610    0.5668    3.6005 H   0  0  0  0  0  0  0  0  0  0  0  0
   -0.5742    3.4531    3.2371 H   0  0  0  0  0  0  0  0  0  0  0  0
   -1.4309    2.4585    2.0834 H   0  0  0  0  0  0  0  0  0  0  0  0
   -2.9891    4.0220    3.1176 H   0  0  0  0  0  0  0  0  0  0  0  0
   -3.3985    2.3928    3.6032 H   0  0  0  0  0  0  0  0  0  0  0  0
   -1.9462    4.4925    5.2520 H   0  0  0  0  0  0  0  0  0  0  0  0
   -3.4692    3.7196    5.6283 H   0  0  0  0  0  0  0  0  0  0  0  0
   -2.4898    3.4038    7.7927 H   0  0  0  0  0  0  0  0  0  0  0  0
   -2.1066    2.6259   11.2833 H   0  0  0  0  0  0  0  0  0  0  0  0
   -3.2044    2.5290    9.9143 H   0  0  0  0  0  0  0  0  0  0  0  0
   -1.8752    3.7255    9.9463 H   0  0  0  0  0  0  0  0  0  0  0  0
    1.6692   -0.6114    9.8992 H   0  0  0  0  0  0  0  0  0  0  0  0
    0.7781    0.8638   10.1566 H   0  0  0  0  0  0  0  0  0  0  0  0
    2.0208    0.8061    8.9037 H   0  0  0  0  0  0  0  0  0  0  0  0
    0.3001   -0.2079    5.8760 H   0  0  0  0  0  0  0  0  0  0  0  0
    0.0899    0.3735    1.6003 H   0  0  0  0  0  0  0  0  0  0  0  0
  1  2  1  0
  1 18  1  0
  1 19  1  0
  1 20  1  0
  2  3  1  0
  2 21  1  0
  2 39  1  0
  3  4  1  0
  3 22  1  0
  3 23  1  0
  4 17  1  0
  4  5  1  0
  4 24  1  6
  5  6  1  0
  5 25  1  0
  5 26  1  0
  6  7  1  0
  6 27  1  0
  6 28  1  0
  7  8  1  0
  7 29  1  0
  7 30  1  0
  8 17  2  0
  8  9  1  0
  9 10  2  0
  9 31  1  0
 10 11  1  0
 10 13  1  0
 11 12  1  0
 12 32  1  0
 12 33  1  0
 12 34  1  0
 13 14  1  0
 13 16  2  0
 14 15  1  0
 15 35  1  0
 15 36  1  0
 15 37  1  0
 16 17  1  0
 16 38  1  0
M  CHG  1   2   1
M  END
>  <i_m_ct_stereo_status>  (65) 
1

>  <s_m_source_file>  (65) 
/var/tmp/pbs.5076255.sched01/tmpuvpulguu/0mmv31ww_.sdf

>  <i_m_source_file_index>  (65) 
35

>  <i_lp_mmshare_version>  (65) 
48012

>  <i_f3d_flags>  (65) 
0

>  <s_epik_input>  (65) 
W0NIM11bTkhdW0NIMl1bQ0BIXShbQ0gyXVtDSDJdW0NIMl0xKWMoYzEyKVtjSF1jKE9bQ0gzXSljKFtjSF0yKU9bQ0gzXQ==

>  <s_epik_cmdline>  (65) 
J2VwaWtfcHl0aG9uJywgJy1waHQnLCAnMi4wJywgJy1waCcsICc3LjAnLCAnLXRuJywgJzgnLCAnLW1hJywgJzIwMCcsICctaW1hZScsICc8aW5maWxlLm1hZT4nLCAnLW9tYWUnLCAnPG91dGZpbGUubWFlPic=

>  <r_lp_tautomer_probability>  (65) 
1

>  <r_epik_Ionization_Penalty>  (65) 
0.000457176

>  <r_epik_Ionization_Penalty_Charging>  (65) 
0.000457176

>  <r_epik_Ionization_Penalty_Neutral>  (65) 
0

>  <r_epik_State_Penalty>  (65) 
0.000282725

>  <r_epik_Charging_Adjusted_Penalty>  (65) 
0.000739901

>  <i_epik_Tot_Q>  (65) 
1

>  <i_epik_Tot_abs_Q>  (65) 
1

>  <s_lp_Force_Field>  (65) 
OPLS3e

>  <r_lp_Energy>  (65) 
32.1788

>  <b_lp_Chiralities_Consistent>  (65) 
1

>  <s_lp_Variant>  (65) 
21:0-1

>  <s_i_glide_gridfile>  (65) 
pfpi4k_grid

>  <i_i_glide_lignum>  (65) 
35

>  <i_i_glide_rotatable_bonds>  (65) 
4

>  <r_i_docking_score>  (65) 
-3.13369

>  <r_i_glide_ligand_efficiency>  (65) 
-0.184335

>  <r_i_glide_ligand_efficiency_sa>  (65) 
-0.473977

>  <r_i_glide_ligand_efficiency_ln>  (65) 
-0.817511

>  <r_i_glide_gscore>  (65) 
-3.13369

>  <r_i_glide_lipo>  (65) 
-0.06829

>  <r_i_glide_hbond>  (65) 
0

>  <r_i_glide_metal>  (65) 
-0

>  <r_i_glide_rewards>  (65) 
-1.79775

>  <r_i_glide_evdw>  (65) 
-14.5737

>  <r_i_glide_ecoul>  (65) 
-5.22324

>  <r_i_glide_erotb>  (65) 
0.308235

>  <r_i_glide_esite>  (65) 
-0.0637197

>  <r_i_glide_emodel>  (65) 
-22.9198

>  <r_i_glide_energy>  (65) 
-19.7969

>  <r_i_glide_einternal>  (65) 
4.55314

>  <r_i_glide_intrahb_reward>  (65) 
-0

>  <i_i_glide_confnum>  (65) 
1

>  <i_i_glide_posenum>  (65) 
1

>  <r_i_glide_eff_state_penalty>  (65) 
0

>  <ligand_id>  (65) 
21

>  <original_smiles>  (65) 
CNCC1CCCc2cc(OC)c(OC)cc21

>  <smiles>  (65) 
[H]c1c(OC([H])([H])[H])c(OC([H])([H])[H])c([H])c2c1C([H])([H])C([H])([H])C([H])([H])C2([H])C([H])([H])[N+]([H])([H])C([H])([H])[H]

$$$$
22:0:0
     RDKit          3D

 75 83  0  0  1  0  0  0  0  0999 V2000
    4.7828   -1.0601   -2.6387 C   0  0  0  0  0  0  0  0  0  0  0  0
    4.8883   -2.5919   -2.7631 C   0  0  2  0  0  0  0  0  0  0  0  0
    3.7938   -3.1622   -3.6838 C   0  0  0  0  0  0  0  0  0  0  0  0
    2.5593   -3.4492   -3.0505 O   0  0  0  0  0  0  0  0  0  0  0  0
    2.4313   -3.0586   -1.6994 C   0  0  0  0  0  0  0  0  0  0  0  0
    3.5358   -3.6047   -0.7661 C   0  0  1  0  0  0  0  0  0  0  0  0
    4.9805   -3.3599   -1.4190 C   0  0  2  0  0  0  0  0  0  0  0  0
    6.2605   -2.9305   -0.6006 C   0  0  0  0  0  0  0  0  0  0  0  0
    5.9399   -1.8182    0.3619 C   0  0  2  0  0  0  0  0  0  0  0  0
    6.3922   -1.5335    1.6808 O   0  0  0  0  0  0  0  0  0  0  0  0
    5.2312   -2.3774    1.5800 C   0  0  2  0  0  0  0  0  0  0  0  0
    5.5688   -3.8244    2.2452 C   0  0  2  0  0  0  0  0  0  0  0  0
    4.8549   -4.9611    1.5479 C   0  0  0  0  0  0  0  0  0  0  0  0
    3.4252   -4.5667    1.7063 C   0  0  1  0  0  0  0  0  0  0  0  0
    3.1268   -4.5832    3.1500 O   0  0  0  0  0  0  0  0  0  0  0  0
    3.8506   -3.8496    4.2053 C   0  0  2  0  0  0  0  0  0  0  0  0
    3.1696   -3.9013    5.7143 C   0  0  0  0  0  0  0  0  0  0  0  0
    2.2096   -2.6398    6.2143 C   0  0  0  0  0  0  0  0  0  0  0  0
    1.9170   -2.4975    7.3978 O   0  0  0  0  0  0  0  0  0  0  0  0
    1.6897   -1.5697    5.1032 C   0  0  1  0  0  0  0  0  0  0  0  0
    2.2509   -0.0992    4.6269 C   0  0  1  0  0  0  0  0  0  0  0  0
    1.0650    0.9099    4.6365 C   0  0  0  0  0  0  0  0  0  0  0  0
    3.2639    0.5137    5.5835 C   0  0  0  0  0  0  0  0  0  0  0  0
    4.6207   -0.0771    5.3084 C   0  0  0  0  0  0  0  0  0  0  0  0
    5.6464    0.6020    5.2811 O   0  0  0  0  0  0  0  0  0  0  0  0
    4.6513   -1.5815    5.1255 C   0  0  0  0  0  0  0  0  0  0  0  0
    5.4042   -2.1399    5.9293 O   0  0  0  0  0  0  0  0  0  0  0  0
    3.6588   -2.4101    4.0994 C   0  0  2  0  0  0  0  0  0  0  0  0
    1.9847   -2.3075    3.8773 C   0  0  1  0  0  0  0  0  0  0  0  0
    0.9178   -3.4960    3.8385 C   0  0  0  0  0  0  0  0  0  0  0  0
    1.5157   -1.5773    2.6037 C   0  0  0  0  0  0  0  0  0  0  0  0
    2.7115   -0.8817    2.0836 C   0  0  1  0  0  0  0  0  0  0  0  0
    2.9668   -0.0082    3.2691 O   0  0  0  0  0  0  0  0  0  0  0  0
    3.7141   -1.9614    1.2726 C   0  0  2  0  0  0  0  0  0  0  0  0
    3.1437   -3.3255    0.7590 C   0  0  1  0  0  0  0  0  0  0  0  0
    5.3462   -4.1166    3.8009 C   0  0  1  0  0  0  0  0  0  0  0  0
    5.8002   -5.5042    4.3144 C   0  0  0  0  0  0  0  0  0  0  0  0
    4.0237   -0.7050   -1.9470 H   0  0  0  0  0  0  0  0  0  0  0  0
    4.5867   -0.6077   -3.6116 H   0  0  0  0  0  0  0  0  0  0  0  0
    5.7363   -0.6540   -2.3083 H   0  0  0  0  0  0  0  0  0  0  0  0
    5.8207   -2.7792   -3.2953 H   0  0  0  0  0  0  0  0  0  0  0  0
    3.5916   -2.4763   -4.5055 H   0  0  0  0  0  0  0  0  0  0  0  0
    4.1403   -4.0904   -4.1398 H   0  0  0  0  0  0  0  0  0  0  0  0
    2.4060   -1.9745   -1.6811 H   0  0  0  0  0  0  0  0  0  0  0  0
    1.4568   -3.4244   -1.3793 H   0  0  0  0  0  0  0  0  0  0  0  0
    3.3909   -4.6801   -0.8539 H   0  0  0  0  0  0  0  0  0  0  0  0
    5.2571   -4.3618   -1.7568 H   0  0  0  0  0  0  0  0  0  0  0  0
    6.7251   -3.7725   -0.0956 H   0  0  0  0  0  0  0  0  0  0  0  0
    7.0384   -2.5806   -1.2781 H   0  0  0  0  0  0  0  0  0  0  0  0
    5.6489   -0.8876   -0.1121 H   0  0  0  0  0  0  0  0  0  0  0  0
    6.6347   -3.9829    2.0829 H   0  0  0  0  0  0  0  0  0  0  0  0
    5.1511   -5.0938    0.5172 H   0  0  0  0  0  0  0  0  0  0  0  0
    5.0447   -5.9388    1.9766 H   0  0  0  0  0  0  0  0  0  0  0  0
    2.8257   -5.3890    1.3083 H   0  0  0  0  0  0  0  0  0  0  0  0
    2.6116   -4.8319    5.8088 H   0  0  0  0  0  0  0  0  0  0  0  0
    3.9618   -4.0033    6.4536 H   0  0  0  0  0  0  0  0  0  0  0  0
    0.6103   -1.4798    5.2436 H   0  0  0  0  0  0  0  0  0  0  0  0
    0.7186    1.0927    5.6558 H   0  0  0  0  0  0  0  0  0  0  0  0
    0.1823    0.5821    4.0899 H   0  0  0  0  0  0  0  0  0  0  0  0
    1.3611    1.8703    4.2099 H   0  0  0  0  0  0  0  0  0  0  0  0
    3.3321    1.5924    5.4381 H   0  0  0  0  0  0  0  0  0  0  0  0
    2.9827    0.3365    6.6222 H   0  0  0  0  0  0  0  0  0  0  0  0
    4.2338   -1.9315    3.3816 H   0  0  0  0  0  0  0  0  0  0  0  0
    0.9141   -4.0289    2.8853 H   0  0  0  0  0  0  0  0  0  0  0  0
   -0.0949   -3.0905    3.9282 H   0  0  0  0  0  0  0  0  0  0  0  0
    0.9850   -4.2749    4.5913 H   0  0  0  0  0  0  0  0  0  0  0  0
    1.0140   -2.1733    1.8577 H   0  0  0  0  0  0  0  0  0  0  0  0
    0.7049   -0.8850    2.7947 H   0  0  0  0  0  0  0  0  0  0  0  0
    2.3487   -0.1855    1.3244 H   0  0  0  0  0  0  0  0  0  0  0  0
    3.7088   -1.3851    0.3477 H   0  0  0  0  0  0  0  0  0  0  0  0
    2.0731   -3.2954    0.7071 H   0  0  0  0  0  0  0  0  0  0  0  0
    6.0812   -3.4893    4.2781 H   0  0  0  0  0  0  0  0  0  0  0  0
    5.0841   -6.2953    4.0819 H   0  0  0  0  0  0  0  0  0  0  0  0
    5.8957   -5.4923    5.4019 H   0  0  0  0  0  0  0  0  0  0  0  0
    6.7716   -5.7889    3.9091 H   0  0  0  0  0  0  0  0  0  0  0  0
  1  2  1  0
  1 38  1  0
  1 39  1  0
  1 40  1  0
  2  7  1  0
  2  3  1  0
  2 41  1  6
  3  4  1  0
  3 42  1  0
  3 43  1  0
  4  5  1  0
  5  6  1  0
  5 44  1  0
  5 45  1  0
  6 35  1  0
  6  7  1  0
  6 46  1  1
  7  8  1  0
  7 47  1  6
  8  9  1  0
  8 48  1  0
  8 49  1  0
  9 11  1  0
  9 10  1  0
  9 50  1  6
 11 10  1  1
 11 34  1  0
 11 12  1  0
 12 36  1  0
 12 13  1  0
 12 51  1  1
 13 14  1  0
 13 52  1  0
 13 53  1  0
 14 35  1  0
 14 15  1  0
 14 54  1  6
 15 16  1  0
 16 28  1  0
 16 17  1  1
 16 36  1  0
 17 18  1  0
 17 55  1  0
 17 56  1  0
 18 19  2  0
 18 20  1  0
 20 29  1  0
 20 21  1  0
 20 57  1  1
 21 33  1  0
 21 22  1  6
 21 23  1  0
 22 58  1  0
 22 59  1  0
 22 60  1  0
 23 24  1  0
 23 61  1  0
 23 62  1  0
 24 25  2  0
 24 26  1  0
 26 27  2  0
 26 28  1  0
 28 29  1  0
 28 63  1  6
 29 30  1  1
 29 31  1  0
 30 64  1  0
 30 65  1  0
 30 66  1  0
 31 32  1  0
 31 67  1  0
 31 68  1  0
 32 33  1  0
 32 34  1  0
 32 69  1  6
 34 35  1  0
 34 70  1  6
 35 71  1  6
 36 37  1  0
 36 72  1  1
 37 73  1  0
 37 74  1  0
 37 75  1  0
M  END
>  <i_m_ct_stereo_status>  (66) 
1

>  <s_m_source_file>  (66) 
/var/tmp/pbs.5076255.sched01/tmpuvpulguu/0mmv31ww_.sdf

>  <i_m_source_file_index>  (66) 
36

>  <i_lp_mmshare_version>  (66) 
48012

>  <i_f3d_flags>  (66) 
0

>  <s_epik_input>  (66) 
W0NIM11bQ0BASF0xW0NIMl1PW0NIMl1bQ0BASF0oW0NAQEhdMVtDSDJdW0NASF0oTzIpW0NAXTIzNClbQ0BIXTVbQ0BIXTZbQ0gyXVtDQEBIXTNbQ0BIXShbQ0gzXSlbQ0BdNyhPNilbQ0BIXThbQ0BAXTkoW0NIM10pW0NAQEhdKEMoPU8pW0NIMl03KVtDQEBdKFtDSDNdKShbQ0gyXUMoPU8pQzg9TylPW0NASF0oW0NIMl05KVtDQEBIXTQ1

>  <s_epik_cmdline>  (66) 
J2VwaWtfcHl0aG9uJywgJy1waHQnLCAnMi4wJywgJy1waCcsICc3LjAnLCAnLXRuJywgJzgnLCAnLW1hJywgJzIwMCcsICctaW1hZScsICc8aW5maWxlLm1hZT4nLCAnLW9tYWUnLCAnPG91dGZpbGUubWFlPic=

>  <r_lp_tautomer_probability>  (66) 
1

>  <r_epik_Ionization_Penalty>  (66) 
5.36225e-11

>  <r_epik_Ionization_Penalty_Charging>  (66) 
0

>  <r_epik_Ionization_Penalty_Neutral>  (66) 
5.36225e-11

>  <r_epik_State_Penalty>  (66) 
-0

>  <r_epik_Charging_Adjusted_Penalty>  (66) 
0

>  <i_epik_Tot_Q>  (66) 
0

>  <i_epik_Tot_abs_Q>  (66) 
0

>  <s_lp_Force_Field>  (66) 
OPLS3e

>  <r_lp_Energy>  (66) 
353.517

>  <b_lp_Chiralities_Consistent>  (66) 
1

>  <s_lp_Variant>  (66) 
22:0-1

>  <s_i_glide_gridfile>  (66) 
pfpi4k_grid

>  <i_i_glide_lignum>  (66) 
36

>  <i_i_glide_rotatable_bonds>  (66) 
0

>  <r_i_docking_score>  (66) 
-2.2458

>  <r_i_glide_ligand_efficiency>  (66) 
-0.0606974

>  <r_i_glide_ligand_efficiency_sa>  (66) 
-0.202257

>  <r_i_glide_ligand_efficiency_ln>  (66) 
-0.487062

>  <r_i_glide_gscore>  (66) 
-2.2458

>  <r_i_glide_lipo>  (66) 
-0.695812

>  <r_i_glide_hbond>  (66) 
0

>  <r_i_glide_metal>  (66) 
-0

>  <r_i_glide_rewards>  (66) 
-0.0566849

>  <r_i_glide_evdw>  (66) 
-29.5903

>  <r_i_glide_ecoul>  (66) 
-0.0919257

>  <r_i_glide_erotb>  (66) 
0

>  <r_i_glide_esite>  (66) 
0

>  <r_i_glide_emodel>  (66) 
-33.9753

>  <r_i_glide_energy>  (66) 
-29.6823

>  <r_i_glide_einternal>  (66) 
0

>  <r_i_glide_intrahb_reward>  (66) 
-0

>  <i_i_glide_confnum>  (66) 
1

>  <i_i_glide_posenum>  (66) 
11

>  <r_i_glide_eff_state_penalty>  (66) 
0

>  <ligand_id>  (66) 
22

>  <original_smiles>  (66) 
CC1COCC2C1CC1OC13C1CC4OC5(CC(=O)C6C7(C)CC(=O)C(=O)C5C6(C)CC(O7)C3C42)C1C

>  <smiles>  (66) 
[H]C([H])([H])C1([H])C([H])([H])OC([H])([H])C2([H])C1([H])C([H])([H])C1([H])OC13C1([H])C([H])([H])C4([H])OC5(C([H])([H])C(=O)C6([H])C7(C([H])([H])[H])OC([H])(C([H])([H])C6(C([H])([H])[H])C5([H])C(=O)C(=O)C7([H])[H])C3([H])C42[H])C1([H])C([H])([H])[H]

$$$$
22:0:1
     RDKit          3D

 75 83  0  0  1  0  0  0  0  0999 V2000
    3.5425   -1.5243    0.5199 C   0  0  0  0  0  0  0  0  0  0  0  0
    5.0170   -1.9373    0.6949 C   0  0  2  0  0  0  0  0  0  0  0  0
    5.6953   -2.2665   -0.6524 C   0  0  0  0  0  0  0  0  0  0  0  0
    5.6052   -3.6198   -1.0798 O   0  0  0  0  0  0  0  0  0  0  0  0
    4.7136   -4.4610   -0.3645 C   0  0  0  0  0  0  0  0  0  0  0  0
    5.0821   -4.5280    1.1404 C   0  0  1  0  0  0  0  0  0  0  0  0
    5.2794   -3.0507    1.7467 C   0  0  2  0  0  0  0  0  0  0  0  0
    4.7889   -2.6071    3.1801 C   0  0  0  0  0  0  0  0  0  0  0  0
    3.3853   -3.0821    3.4470 C   0  0  2  0  0  0  0  0  0  0  0  0
    2.7447   -3.5680    4.6198 O   0  0  0  0  0  0  0  0  0  0  0  0
    3.3967   -4.5511    3.8052 C   0  0  2  0  0  0  0  0  0  0  0  0
    4.5679   -5.2654    4.6796 C   0  0  2  0  0  0  0  0  0  0  0  0
    5.7555   -5.6645    3.8329 C   0  0  0  0  0  0  0  0  0  0  0  0
    5.1362   -6.5808    2.8319 C   0  0  1  0  0  0  0  0  0  0  0  0
    4.6174   -7.7430    3.5743 O   0  0  0  0  0  0  0  0  0  0  0  0
    3.6828   -7.7171    4.7138 C   0  0  2  0  0  0  0  0  0  0  0  0
    3.1285   -9.2002    5.2083 C   0  0  0  0  0  0  0  0  0  0  0  0
    1.6505   -9.7374    4.6633 C   0  0  0  0  0  0  0  0  0  0  0  0
    1.0622  -10.6512    5.2271 O   0  0  0  0  0  0  0  0  0  0  0  0
    0.9569   -8.9746    3.4047 C   0  0  1  0  0  0  0  0  0  0  0  0
   -0.1751   -7.7850    3.3151 C   0  0  1  0  0  0  0  0  0  0  0  0
   -1.2867   -8.2357    2.3306 C   0  0  0  0  0  0  0  0  0  0  0  0
   -0.9198   -7.5457    4.6134 C   0  0  0  0  0  0  0  0  0  0  0  0
   -0.0895   -6.6636    5.5080 C   0  0  0  0  0  0  0  0  0  0  0  0
   -0.5766   -5.7296    6.1385 O   0  0  0  0  0  0  0  0  0  0  0  0
    1.3780   -7.0331    5.6103 C   0  0  0  0  0  0  0  0  0  0  0  0
    1.7330   -7.2451    6.7710 O   0  0  0  0  0  0  0  0  0  0  0  0
    2.3574   -7.2872    4.3081 C   0  0  2  0  0  0  0  0  0  0  0  0
    2.1029   -8.2160    2.9143 C   0  0  1  0  0  0  0  0  0  0  0  0
    3.0778   -9.2981    2.2351 C   0  0  0  0  0  0  0  0  0  0  0  0
    1.7939   -7.4221    1.6367 C   0  0  0  0  0  0  0  0  0  0  0  0
    1.4851   -6.0494    2.0811 C   0  0  1  0  0  0  0  0  0  0  0  0
    0.2922   -6.3690    2.9227 O   0  0  0  0  0  0  0  0  0  0  0  0
    2.9003   -5.2107    2.4255 C   0  0  2  0  0  0  0  0  0  0  0  0
    4.2633   -5.7097    1.8369 C   0  0  1  0  0  0  0  0  0  0  0  0
    4.2746   -6.5424    5.5884 C   0  0  1  0  0  0  0  0  0  0  0  0
    5.4575   -7.0685    6.4365 C   0  0  0  0  0  0  0  0  0  0  0  0
    2.8786   -2.3708    0.3583 H   0  0  0  0  0  0  0  0  0  0  0  0
    3.4194   -0.8484   -0.3266 H   0  0  0  0  0  0  0  0  0  0  0  0
    3.1817   -0.9819    1.3935 H   0  0  0  0  0  0  0  0  0  0  0  0
    5.5156   -1.0349    1.0499 H   0  0  0  0  0  0  0  0  0  0  0  0
    5.3087   -1.6184   -1.4390 H   0  0  0  0  0  0  0  0  0  0  0  0
    6.7596   -2.0408   -0.5810 H   0  0  0  0  0  0  0  0  0  0  0  0
    3.6763   -4.1720   -0.5301 H   0  0  0  0  0  0  0  0  0  0  0  0
    4.8211   -5.4464   -0.8178 H   0  0  0  0  0  0  0  0  0  0  0  0
    6.0957   -4.9262    1.0932 H   0  0  0  0  0  0  0  0  0  0  0  0
    6.3634   -2.9896    1.8591 H   0  0  0  0  0  0  0  0  0  0  0  0
    5.4709   -2.9225    3.9645 H   0  0  0  0  0  0  0  0  0  0  0  0
    4.7973   -1.5197    3.2555 H   0  0  0  0  0  0  0  0  0  0  0  0
    2.6399   -2.6341    2.7962 H   0  0  0  0  0  0  0  0  0  0  0  0
    4.9166   -4.5081    5.3785 H   0  0  0  0  0  0  0  0  0  0  0  0
    6.2589   -4.8251    3.3793 H   0  0  0  0  0  0  0  0  0  0  0  0
    6.5519   -6.1563    4.3821 H   0  0  0  0  0  0  0  0  0  0  0  0
    5.9518   -6.9944    2.2361 H   0  0  0  0  0  0  0  0  0  0  0  0
    3.8821   -9.9500    4.9766 H   0  0  0  0  0  0  0  0  0  0  0  0
    3.0796   -9.2135    6.2956 H   0  0  0  0  0  0  0  0  0  0  0  0
    0.6790   -9.7515    2.6889 H   0  0  0  0  0  0  0  0  0  0  0  0
   -1.8396   -9.0918    2.7286 H   0  0  0  0  0  0  0  0  0  0  0  0
   -0.9240   -8.5511    1.3550 H   0  0  0  0  0  0  0  0  0  0  0  0
   -1.9996   -7.4314    2.1461 H   0  0  0  0  0  0  0  0  0  0  0  0
   -1.8669   -7.0355    4.4322 H   0  0  0  0  0  0  0  0  0  0  0  0
   -1.1432   -8.4876    5.1165 H   0  0  0  0  0  0  0  0  0  0  0  0
    2.2310   -6.2644    4.1970 H   0  0  0  0  0  0  0  0  0  0  0  0
    3.8973   -8.8479    1.6723 H   0  0  0  0  0  0  0  0  0  0  0  0
    2.5376   -9.8896    1.4897 H   0  0  0  0  0  0  0  0  0  0  0  0
    3.5604  -10.0208    2.8858 H   0  0  0  0  0  0  0  0  0  0  0  0
    2.5465   -7.4539    0.8762 H   0  0  0  0  0  0  0  0  0  0  0  0
    0.9753   -7.8494    1.0682 H   0  0  0  0  0  0  0  0  0  0  0  0
    1.0603   -5.5550    1.2101 H   0  0  0  0  0  0  0  0  0  0  0  0
    2.6775   -4.3960    1.7398 H   0  0  0  0  0  0  0  0  0  0  0  0
    4.1227   -6.3766    1.0068 H   0  0  0  0  0  0  0  0  0  0  0  0
    3.6369   -6.1250    6.3579 H   0  0  0  0  0  0  0  0  0  0  0  0
    6.1667   -7.6575    5.8515 H   0  0  0  0  0  0  0  0  0  0  0  0
    5.0937   -7.7306    7.2235 H   0  0  0  0  0  0  0  0  0  0  0  0
    6.0046   -6.2591    6.9210 H   0  0  0  0  0  0  0  0  0  0  0  0
  1  2  1  0
  1 38  1  0
  1 39  1  0
  1 40  1  0
  2  7  1  0
  2  3  1  0
  2 41  1  1
  3  4  1  0
  3 42  1  0
  3 43  1  0
  4  5  1  0
  5  6  1  0
  5 44  1  0
  5 45  1  0
  6 35  1  0
  6  7  1  0
  6 46  1  6
  7  8  1  0
  7 47  1  1
  8  9  1  0
  8 48  1  0
  8 49  1  0
  9 11  1  0
  9 10  1  0
  9 50  1  6
 11 10  1  1
 11 34  1  0
 11 12  1  0
 12 36  1  0
 12 13  1  0
 12 51  1  1
 13 14  1  0
 13 52  1  0
 13 53  1  0
 14 35  1  0
 14 15  1  0
 14 54  1  6
 15 16  1  0
 16 28  1  0
 16 17  1  1
 16 36  1  0
 17 18  1  0
 17 55  1  0
 17 56  1  0
 18 19  2  0
 18 20  1  0
 20 29  1  0
 20 21  1  0
 20 57  1  6
 21 33  1  0
 21 22  1  6
 21 23  1  0
 22 58  1  0
 22 59  1  0
 22 60  1  0
 23 24  1  0
 23 61  1  0
 23 62  1  0
 24 25  2  0
 24 26  1  0
 26 27  2  0
 26 28  1  0
 28 29  1  0
 28 63  1  6
 29 30  1  6
 29 31  1  0
 30 64  1  0
 30 65  1  0
 30 66  1  0
 31 32  1  0
 31 67  1  0
 31 68  1  0
 32 33  1  0
 32 34  1  0
 32 69  1  6
 34 35  1  0
 34 70  1  6
 35 71  1  6
 36 37  1  0
 36 72  1  1
 37 73  1  0
 37 74  1  0
 37 75  1  0
M  END
>  <i_m_ct_stereo_status>  (67) 
1

>  <s_m_source_file>  (67) 
/var/tmp/pbs.5076255.sched01/tmpuvpulguu/0mmv31ww_.sdf

>  <i_m_source_file_index>  (67) 
36

>  <i_lp_mmshare_version>  (67) 
48012

>  <i_f3d_flags>  (67) 
0

>  <s_epik_input>  (67) 
W0NIM11bQ0BASF0xW0NIMl1PW0NIMl1bQ0BASF0oW0NAQEhdMVtDSDJdW0NASF0oTzIpW0NAXTIzNClbQ0BIXTVbQ0BIXTZbQ0gyXVtDQEBIXTNbQ0BIXShbQ0gzXSlbQ0BdNyhPNilbQ0BIXThbQ0BAXTkoW0NIM10pW0NAQEhdKEMoPU8pW0NIMl03KVtDQEBdKFtDSDNdKShbQ0gyXUMoPU8pQzg9TylPW0NASF0oW0NIMl05KVtDQEBIXTQ1

>  <s_epik_cmdline>  (67) 
J2VwaWtfcHl0aG9uJywgJy1waHQnLCAnMi4wJywgJy1waCcsICc3LjAnLCAnLXRuJywgJzgnLCAnLW1hJywgJzIwMCcsICctaW1hZScsICc8aW5maWxlLm1hZT4nLCAnLW9tYWUnLCAnPG91dGZpbGUubWFlPic=

>  <r_lp_tautomer_probability>  (67) 
1

>  <r_epik_Ionization_Penalty>  (67) 
5.36225e-11

>  <r_epik_Ionization_Penalty_Charging>  (67) 
0

>  <r_epik_Ionization_Penalty_Neutral>  (67) 
5.36225e-11

>  <r_epik_State_Penalty>  (67) 
-0

>  <r_epik_Charging_Adjusted_Penalty>  (67) 
0

>  <i_epik_Tot_Q>  (67) 
0

>  <i_epik_Tot_abs_Q>  (67) 
0

>  <s_lp_Force_Field>  (67) 
OPLS3e

>  <r_lp_Energy>  (67) 
353.517

>  <b_lp_Chiralities_Consistent>  (67) 
1

>  <s_lp_Variant>  (67) 
22:0-1

>  <s_i_glide_gridfile>  (67) 
pfpi4k_grid

>  <i_i_glide_lignum>  (67) 
36

>  <i_i_glide_rotatable_bonds>  (67) 
0

>  <r_i_docking_score>  (67) 
-2.11506

>  <r_i_glide_ligand_efficiency>  (67) 
-0.0571638

>  <r_i_glide_ligand_efficiency_sa>  (67) 
-0.190483

>  <r_i_glide_ligand_efficiency_ln>  (67) 
-0.458707

>  <r_i_glide_gscore>  (67) 
-2.11506

>  <r_i_glide_lipo>  (67) 
-0.195126

>  <r_i_glide_hbond>  (67) 
-0.0853789

>  <r_i_glide_metal>  (67) 
-0

>  <r_i_glide_rewards>  (67) 
0

>  <r_i_glide_evdw>  (67) 
-33.2804

>  <r_i_glide_ecoul>  (67) 
-0.836525

>  <r_i_glide_erotb>  (67) 
0

>  <r_i_glide_esite>  (67) 
-0.0450583

>  <r_i_glide_emodel>  (67) 
-38.1924

>  <r_i_glide_energy>  (67) 
-34.1169

>  <r_i_glide_einternal>  (67) 
0

>  <r_i_glide_intrahb_reward>  (67) 
-0

>  <i_i_glide_confnum>  (67) 
2

>  <i_i_glide_posenum>  (67) 
31

>  <r_i_glide_eff_state_penalty>  (67) 
0

>  <ligand_id>  (67) 
22

>  <original_smiles>  (67) 
CC1COCC2C1CC1OC13C1CC4OC5(CC(=O)C6C7(C)CC(=O)C(=O)C5C6(C)CC(O7)C3C42)C1C

>  <smiles>  (67) 
[H]C([H])([H])C1([H])C([H])([H])OC([H])([H])C2([H])C1([H])C([H])([H])C1([H])OC13C1([H])C([H])([H])C4([H])OC5(C([H])([H])C(=O)C6([H])C7(C([H])([H])[H])OC([H])(C([H])([H])C6(C([H])([H])[H])C5([H])C(=O)C(=O)C7([H])[H])C3([H])C42[H])C1([H])C([H])([H])[H]

$$$$
22:0:2
     RDKit          3D

 75 83  0  0  1  0  0  0  0  0999 V2000
    6.5703   -9.9231    2.0329 C   0  0  0  0  0  0  0  0  0  0  0  0
    5.6302   -9.8839    3.2463 C   0  0  2  0  0  0  0  0  0  0  0  0
    4.3790  -10.7681    3.0544 C   0  0  0  0  0  0  0  0  0  0  0  0
    3.2567  -10.1233    2.4719 O   0  0  0  0  0  0  0  0  0  0  0  0
    3.4907   -8.8651    1.8614 C   0  0  0  0  0  0  0  0  0  0  0  0
    4.0085   -7.8516    2.9135 C   0  0  1  0  0  0  0  0  0  0  0  0
    5.2479   -8.4636    3.7341 C   0  0  2  0  0  0  0  0  0  0  0  0
    6.5260   -7.6375    4.1652 C   0  0  0  0  0  0  0  0  0  0  0  0
    7.0413   -6.8060    3.0097 C   0  0  2  0  0  0  0  0  0  0  0  0
    7.5905   -5.5007    2.9416 O   0  0  0  0  0  0  0  0  0  0  0  0
    6.1545   -5.5749    2.8681 C   0  0  2  0  0  0  0  0  0  0  0  0
    5.5205   -4.7555    4.1207 C   0  0  2  0  0  0  0  0  0  0  0  0
    4.2073   -5.3738    4.5834 C   0  0  0  0  0  0  0  0  0  0  0  0
    3.3724   -5.3242    3.3512 C   0  0  1  0  0  0  0  0  0  0  0  0
    3.1715   -3.9055    3.0359 O   0  0  0  0  0  0  0  0  0  0  0  0
    4.2307   -2.8967    2.8414 C   0  0  2  0  0  0  0  0  0  0  0  0
    3.6700   -1.4301    2.3263 C   0  0  0  0  0  0  0  0  0  0  0  0
    3.8232   -1.0439    0.7382 C   0  0  0  0  0  0  0  0  0  0  0  0
    3.9741    0.1473    0.4620 O   0  0  0  0  0  0  0  0  0  0  0  0
    4.0741   -2.2567   -0.3566 C   0  0  1  0  0  0  0  0  0  0  0  0
    5.4312   -2.8806   -1.0842 C   0  0  1  0  0  0  0  0  0  0  0  0
    5.2002   -3.0188   -2.6113 C   0  0  0  0  0  0  0  0  0  0  0  0
    6.6098   -1.9714   -0.9785 C   0  0  0  0  0  0  0  0  0  0  0  0
    7.2647   -2.1153    0.3583 C   0  0  0  0  0  0  0  0  0  0  0  0
    8.4812   -2.1508    0.4949 O   0  0  0  0  0  0  0  0  0  0  0  0
    6.3005   -2.1061    1.5156 C   0  0  0  0  0  0  0  0  0  0  0  0
    6.4128   -1.0904    2.2095 O   0  0  0  0  0  0  0  0  0  0  0  0
    5.0228   -3.1345    1.6487 C   0  0  2  0  0  0  0  0  0  0  0  0
    3.8172   -3.4136    0.5010 C   0  0  1  0  0  0  0  0  0  0  0  0
    2.2533   -3.4002    0.6982 C   0  0  0  0  0  0  0  0  0  0  0  0
    3.8835   -4.7730   -0.2078 C   0  0  0  0  0  0  0  0  0  0  0  0
    5.2147   -5.3176    0.0809 C   0  0  1  0  0  0  0  0  0  0  0  0
    6.0027   -4.2110   -0.5410 O   0  0  0  0  0  0  0  0  0  0  0  0
    5.2721   -5.9745    1.6091 C   0  0  2  0  0  0  0  0  0  0  0  0
    3.9248   -6.3823    2.3148 C   0  0  1  0  0  0  0  0  0  0  0  0
    5.1992   -3.1831    4.0275 C   0  0  1  0  0  0  0  0  0  0  0  0
    4.6678   -2.5298    5.3268 C   0  0  0  0  0  0  0  0  0  0  0  0
    6.2448   -9.3129    1.1948 H   0  0  0  0  0  0  0  0  0  0  0  0
    6.7185  -10.9404    1.6701 H   0  0  0  0  0  0  0  0  0  0  0  0
    7.5400   -9.5544    2.3637 H   0  0  0  0  0  0  0  0  0  0  0  0
    6.1962  -10.3596    4.0411 H   0  0  0  0  0  0  0  0  0  0  0  0
    4.6425  -11.6549    2.4779 H   0  0  0  0  0  0  0  0  0  0  0  0
    4.0530  -11.1357    4.0279 H   0  0  0  0  0  0  0  0  0  0  0  0
    4.1444   -8.9427    0.9931 H   0  0  0  0  0  0  0  0  0  0  0  0
    2.5251   -8.5441    1.4789 H   0  0  0  0  0  0  0  0  0  0  0  0
    3.1940   -7.8682    3.6421 H   0  0  0  0  0  0  0  0  0  0  0  0
    4.8036   -8.6906    4.7043 H   0  0  0  0  0  0  0  0  0  0  0  0
    6.3545   -7.0377    5.0444 H   0  0  0  0  0  0  0  0  0  0  0  0
    7.3277   -8.3154    4.4615 H   0  0  0  0  0  0  0  0  0  0  0  0
    7.3981   -7.3879    2.1754 H   0  0  0  0  0  0  0  0  0  0  0  0
    6.2199   -4.8517    4.9284 H   0  0  0  0  0  0  0  0  0  0  0  0
    4.3216   -6.3720    4.9740 H   0  0  0  0  0  0  0  0  0  0  0  0
    3.7379   -4.8402    5.4021 H   0  0  0  0  0  0  0  0  0  0  0  0
    2.3706   -5.6629    3.6320 H   0  0  0  0  0  0  0  0  0  0  0  0
    2.6525   -1.2648    2.6611 H   0  0  0  0  0  0  0  0  0  0  0  0
    4.2422   -0.6596    2.8422 H   0  0  0  0  0  0  0  0  0  0  0  0
    3.3132   -2.1731   -1.1329 H   0  0  0  0  0  0  0  0  0  0  0  0
    5.0933   -2.0270   -3.0688 H   0  0  0  0  0  0  0  0  0  0  0  0
    4.3110   -3.5677   -2.9094 H   0  0  0  0  0  0  0  0  0  0  0  0
    6.0545   -3.5040   -3.1006 H   0  0  0  0  0  0  0  0  0  0  0  0
    7.3387   -2.2174   -1.7564 H   0  0  0  0  0  0  0  0  0  0  0  0
    6.2398   -0.9498   -1.1131 H   0  0  0  0  0  0  0  0  0  0  0  0
    5.7769   -3.8502    1.7201 H   0  0  0  0  0  0  0  0  0  0  0  0
    1.8708   -4.2985    1.1779 H   0  0  0  0  0  0  0  0  0  0  0  0
    1.8094   -3.3816   -0.3002 H   0  0  0  0  0  0  0  0  0  0  0  0
    1.8085   -2.5751    1.2423 H   0  0  0  0  0  0  0  0  0  0  0  0
    3.0762   -5.4762   -0.0503 H   0  0  0  0  0  0  0  0  0  0  0  0
    3.7437   -4.6546   -1.2739 H   0  0  0  0  0  0  0  0  0  0  0  0
    5.3582   -6.1373   -0.6066 H   0  0  0  0  0  0  0  0  0  0  0  0
    5.6091   -6.9466    1.2608 H   0  0  0  0  0  0  0  0  0  0  0  0
    3.1284   -6.4661    1.6018 H   0  0  0  0  0  0  0  0  0  0  0  0
    6.1660   -2.7074    3.9201 H   0  0  0  0  0  0  0  0  0  0  0  0
    3.6033   -2.7119    5.4890 H   0  0  0  0  0  0  0  0  0  0  0  0
    4.7798   -1.4456    5.2724 H   0  0  0  0  0  0  0  0  0  0  0  0
    5.2103   -2.8660    6.2097 H   0  0  0  0  0  0  0  0  0  0  0  0
  1  2  1  0
  1 38  1  0
  1 39  1  0
  1 40  1  0
  2  7  1  0
  2  3  1  0
  2 41  1  1
  3  4  1  0
  3 42  1  0
  3 43  1  0
  4  5  1  0
  5  6  1  0
  5 44  1  0
  5 45  1  0
  6 35  1  0
  6  7  1  0
  6 46  1  1
  7  8  1  0
  7 47  1  1
  8  9  1  0
  8 48  1  0
  8 49  1  0
  9 11  1  0
  9 10  1  0
  9 50  1  6
 11 10  1  6
 11 34  1  0
 11 12  1  0
 12 36  1  0
 12 13  1  0
 12 51  1  1
 13 14  1  0
 13 52  1  0
 13 53  1  0
 14 35  1  0
 14 15  1  0
 14 54  1  1
 15 16  1  0
 16 28  1  0
 16 17  1  6
 16 36  1  0
 17 18  1  0
 17 55  1  0
 17 56  1  0
 18 19  2  0
 18 20  1  0
 20 29  1  0
 20 21  1  0
 20 57  1  6
 21 33  1  0
 21 22  1  6
 21 23  1  0
 22 58  1  0
 22 59  1  0
 22 60  1  0
 23 24  1  0
 23 61  1  0
 23 62  1  0
 24 25  2  0
 24 26  1  0
 26 27  2  0
 26 28  1  0
 28 29  1  0
 28 63  1  1
 29 30  1  1
 29 31  1  0
 30 64  1  0
 30 65  1  0
 30 66  1  0
 31 32  1  0
 31 67  1  0
 31 68  1  0
 32 33  1  0
 32 34  1  0
 32 69  1  6
 34 35  1  0
 34 70  1  6
 35 71  1  6
 36 37  1  0
 36 72  1  6
 37 73  1  0
 37 74  1  0
 37 75  1  0
M  END
>  <i_m_ct_stereo_status>  (68) 
1

>  <s_m_source_file>  (68) 
/var/tmp/pbs.5076255.sched01/tmpuvpulguu/0mmv31ww_.sdf

>  <i_m_source_file_index>  (68) 
36

>  <i_lp_mmshare_version>  (68) 
48012

>  <i_f3d_flags>  (68) 
0

>  <s_epik_input>  (68) 
W0NIM11bQ0BASF0xW0NIMl1PW0NIMl1bQ0BASF0oW0NAQEhdMVtDSDJdW0NASF0oTzIpW0NAXTIzNClbQ0BIXTVbQ0BIXTZbQ0gyXVtDQEBIXTNbQ0BIXShbQ0gzXSlbQ0BdNyhPNilbQ0BIXThbQ0BAXTkoW0NIM10pW0NAQEhdKEMoPU8pW0NIMl03KVtDQEBdKFtDSDNdKShbQ0gyXUMoPU8pQzg9TylPW0NASF0oW0NIMl05KVtDQEBIXTQ1

>  <s_epik_cmdline>  (68) 
J2VwaWtfcHl0aG9uJywgJy1waHQnLCAnMi4wJywgJy1waCcsICc3LjAnLCAnLXRuJywgJzgnLCAnLW1hJywgJzIwMCcsICctaW1hZScsICc8aW5maWxlLm1hZT4nLCAnLW9tYWUnLCAnPG91dGZpbGUubWFlPic=

>  <r_lp_tautomer_probability>  (68) 
1

>  <r_epik_Ionization_Penalty>  (68) 
5.36225e-11

>  <r_epik_Ionization_Penalty_Charging>  (68) 
0

>  <r_epik_Ionization_Penalty_Neutral>  (68) 
5.36225e-11

>  <r_epik_State_Penalty>  (68) 
-0

>  <r_epik_Charging_Adjusted_Penalty>  (68) 
0

>  <i_epik_Tot_Q>  (68) 
0

>  <i_epik_Tot_abs_Q>  (68) 
0

>  <s_lp_Force_Field>  (68) 
OPLS3e

>  <r_lp_Energy>  (68) 
353.517

>  <b_lp_Chiralities_Consistent>  (68) 
1

>  <s_lp_Variant>  (68) 
22:0-1

>  <s_i_glide_gridfile>  (68) 
pfpi4k_grid

>  <i_i_glide_lignum>  (68) 
36

>  <i_i_glide_rotatable_bonds>  (68) 
0

>  <r_i_docking_score>  (68) 
-1.58337

>  <r_i_glide_ligand_efficiency>  (68) 
-0.0427937

>  <r_i_glide_ligand_efficiency_sa>  (68) 
-0.142598

>  <r_i_glide_ligand_efficiency_ln>  (68) 
-0.343395

>  <r_i_glide_gscore>  (68) 
-1.58337

>  <r_i_glide_lipo>  (68) 
-0.455307

>  <r_i_glide_hbond>  (68) 
0

>  <r_i_glide_metal>  (68) 
-0

>  <r_i_glide_rewards>  (68) 
-0.234812

>  <r_i_glide_evdw>  (68) 
-19.7435

>  <r_i_glide_ecoul>  (68) 
0.772793

>  <r_i_glide_erotb>  (68) 
0

>  <r_i_glide_esite>  (68) 
-0.0219911

>  <r_i_glide_emodel>  (68) 
-21.3668

>  <r_i_glide_energy>  (68) 
-18.9707

>  <r_i_glide_einternal>  (68) 
0

>  <r_i_glide_intrahb_reward>  (68) 
-0

>  <i_i_glide_confnum>  (68) 
1

>  <i_i_glide_posenum>  (68) 
3

>  <r_i_glide_eff_state_penalty>  (68) 
0

>  <ligand_id>  (68) 
22

>  <original_smiles>  (68) 
CC1COCC2C1CC1OC13C1CC4OC5(CC(=O)C6C7(C)CC(=O)C(=O)C5C6(C)CC(O7)C3C42)C1C

>  <smiles>  (68) 
[H]C([H])([H])C1([H])C([H])([H])OC([H])([H])C2([H])C1([H])C([H])([H])C1([H])OC13C1([H])C([H])([H])C4([H])OC5(C([H])([H])C(=O)C6([H])C7(C([H])([H])[H])OC([H])(C([H])([H])C6(C([H])([H])[H])C5([H])C(=O)C(=O)C7([H])[H])C3([H])C42[H])C1([H])C([H])([H])[H]

$$$$
23:0:0
     RDKit          3D

 70 76  0  0  1  0  0  0  0  0999 V2000
    6.4223  -10.3653    1.9412 C   0  0  0  0  0  0  0  0  0  0  0  0
    5.4556   -9.4174    2.6618 C   0  0  2  0  0  0  0  0  0  0  0  0
    5.0476   -8.2425    1.7912 C   0  0  0  0  0  0  0  0  0  0  0  0
    5.4172   -6.9630    2.0140 C   0  0  0  0  0  0  0  0  0  0  0  0
    6.5243   -6.6235    3.0195 C   0  0  2  0  0  0  0  0  0  0  0  0
    7.7229   -5.9371    2.3098 C   0  0  0  0  0  0  0  0  0  0  0  0
    7.4298   -5.4350    0.8899 C   0  0  0  0  0  0  0  0  0  0  0  0
    6.0416   -4.7795    0.8144 C   0  0  1  0  0  0  0  0  0  0  0  0
    5.9357   -3.8953   -0.4699 C   0  0  1  0  0  0  0  0  0  0  0  0
    4.9875   -4.2699   -1.4511 O   0  0  0  0  0  0  0  0  0  0  0  0
    4.5182   -3.2612   -2.1670 C   0  0  0  0  0  0  0  0  0  0  0  0
    3.7031   -3.3107   -3.0864 O   0  0  0  0  0  0  0  0  0  0  0  0
    5.1703   -1.9849   -1.6851 C   0  0  1  0  0  0  0  0  0  0  0  0
    4.2210   -0.7806   -1.7792 C   0  0  0  0  0  0  0  0  0  0  0  0
    5.7485   -2.3712   -0.3126 C   0  0  1  0  0  0  0  0  0  0  0  0
    4.9642   -1.9024    0.9381 C   0  0  0  0  0  0  0  0  0  0  0  0
    3.5766   -2.5321    1.1814 C   0  0  0  0  0  0  0  0  0  0  0  0
    3.4839   -3.6520    2.2710 C   0  0  1  0  0  0  0  0  0  0  0  0
    2.2119   -3.3849    3.0951 C   0  0  0  0  0  0  0  0  0  0  0  0
    3.5563   -5.1303    1.7727 C   0  0  1  0  0  0  0  0  0  0  0  0
    2.9117   -6.0022    2.7087 O   0  0  0  0  0  0  0  0  0  0  0  0
    2.0569   -6.8654    2.0185 C   0  0  1  0  0  0  0  0  0  0  0  0
    0.7604   -7.0106    2.7649 C   0  0  0  0  0  0  0  0  0  0  0  0
   -0.2907   -7.8358    2.4424 C   0  0  0  0  0  0  0  0  0  0  0  0
   -1.3586   -7.8005    3.3849 C   0  0  0  0  0  0  0  0  0  0  0  0
   -1.1159   -6.9372    4.4191 C   0  0  0  0  0  0  0  0  0  0  0  0
    0.4492   -6.1877    4.2763 S   0  0  0  0  0  0  0  0  0  0  0  0
    1.7908   -6.3214    0.7770 O   0  0  0  0  0  0  0  0  0  0  0  0
    2.9288   -5.5423    0.4464 C   0  0  2  0  0  0  0  0  0  0  0  0
    4.1236   -6.2774    0.0634 O   0  0  0  0  0  0  0  0  0  0  0  0
    4.8678   -5.7573    1.2016 C   0  0  2  0  0  0  0  0  0  0  0  0
    7.0357   -7.8329    3.8600 C   0  0  1  0  0  0  0  0  0  0  0  0
    7.5938   -7.3902    5.2224 C   0  0  0  0  0  0  0  0  0  0  0  0
    5.9747   -8.9275    4.0225 C   0  0  0  0  0  0  0  0  0  0  0  0
    5.9636  -10.7854    1.0468 H   0  0  0  0  0  0  0  0  0  0  0  0
    6.7002  -11.2024    2.5836 H   0  0  0  0  0  0  0  0  0  0  0  0
    7.3321   -9.8520    1.6423 H   0  0  0  0  0  0  0  0  0  0  0  0
    4.5446   -9.9845    2.8568 H   0  0  0  0  0  0  0  0  0  0  0  0
    4.3537   -8.4917    1.0011 H   0  0  0  0  0  0  0  0  0  0  0  0
    6.0557   -5.9053    3.6950 H   0  0  0  0  0  0  0  0  0  0  0  0
    8.0418   -5.0890    2.9130 H   0  0  0  0  0  0  0  0  0  0  0  0
    8.5961   -6.5919    2.2595 H   0  0  0  0  0  0  0  0  0  0  0  0
    8.2049   -4.7185    0.6197 H   0  0  0  0  0  0  0  0  0  0  0  0
    7.5045   -6.2620    0.1805 H   0  0  0  0  0  0  0  0  0  0  0  0
    6.1271   -4.0799    1.6426 H   0  0  0  0  0  0  0  0  0  0  0  0
    6.8885   -3.9812   -0.9912 H   0  0  0  0  0  0  0  0  0  0  0  0
    6.0029   -1.8272   -2.3636 H   0  0  0  0  0  0  0  0  0  0  0  0
    3.9455   -0.5724   -2.8161 H   0  0  0  0  0  0  0  0  0  0  0  0
    4.6843    0.1162   -1.3841 H   0  0  0  0  0  0  0  0  0  0  0  0
    3.2957   -0.9479   -1.2219 H   0  0  0  0  0  0  0  0  0  0  0  0
    6.7357   -1.9138   -0.2287 H   0  0  0  0  0  0  0  0  0  0  0  0
    5.5870   -2.0044    1.8290 H   0  0  0  0  0  0  0  0  0  0  0  0
    4.8339   -0.8213    0.8494 H   0  0  0  0  0  0  0  0  0  0  0  0
    2.9677   -1.6932    1.5199 H   0  0  0  0  0  0  0  0  0  0  0  0
    3.0941   -2.7990    0.2468 H   0  0  0  0  0  0  0  0  0  0  0  0
    4.3002   -3.5041    2.9762 H   0  0  0  0  0  0  0  0  0  0  0  0
    1.3147   -3.5335    2.4944 H   0  0  0  0  0  0  0  0  0  0  0  0
    2.1933   -2.3688    3.4910 H   0  0  0  0  0  0  0  0  0  0  0  0
    2.1675   -4.0394    3.9610 H   0  0  0  0  0  0  0  0  0  0  0  0
    2.5018   -7.8480    1.8844 H   0  0  0  0  0  0  0  0  0  0  0  0
   -0.3240   -8.4856    1.5822 H   0  0  0  0  0  0  0  0  0  0  0  0
   -2.2411   -8.4160    3.2863 H   0  0  0  0  0  0  0  0  0  0  0  0
   -1.7471   -6.7192    5.2685 H   0  0  0  0  0  0  0  0  0  0  0  0
    2.6992   -4.7665   -0.2796 H   0  0  0  0  0  0  0  0  0  0  0  0
    7.8602   -8.3120    3.3290 H   0  0  0  0  0  0  0  0  0  0  0  0
    6.8220   -6.9367    5.8443 H   0  0  0  0  0  0  0  0  0  0  0  0
    8.3989   -6.6665    5.1021 H   0  0  0  0  0  0  0  0  0  0  0  0
    8.0008   -8.2412    5.7702 H   0  0  0  0  0  0  0  0  0  0  0  0
    5.1391   -8.5344    4.6013 H   0  0  0  0  0  0  0  0  0  0  0  0
    6.3732   -9.7691    4.5911 H   0  0  0  0  0  0  0  0  0  0  0  0
  1  2  1  0
  1 35  1  0
  1 36  1  0
  1 37  1  0
  2 34  1  0
  2  3  1  0
  2 38  1  1
  3  4  2  0
  3 39  1  0
  4 31  1  0
  4  5  1  0
  5  6  1  0
  5 32  1  0
  5 40  1  1
  6  7  1  0
  6 41  1  0
  6 42  1  0
  7  8  1  0
  7 43  1  0
  7 44  1  0
  8 31  1  0
  8  9  1  0
  8 45  1  1
  9 15  1  0
  9 10  1  0
  9 46  1  6
 10 11  1  0
 11 12  2  0
 11 13  1  0
 13 14  1  0
 13 15  1  0
 13 47  1  6
 14 48  1  0
 14 49  1  0
 14 50  1  0
 15 16  1  0
 15 51  1  1
 16 17  1  0
 16 52  1  0
 16 53  1  0
 17 18  1  0
 17 54  1  0
 17 55  1  0
 18 19  1  0
 18 20  1  0
 18 56  1  1
 19 57  1  0
 19 58  1  0
 19 59  1  0
 20 29  1  0
 20 31  1  0
 20 21  1  1
 21 22  1  0
 22 23  1  0
 22 28  1  0
 22 60  1  6
 23 27  1  0
 23 24  2  0
 24 25  1  0
 24 61  1  0
 25 26  2  0
 25 62  1  0
 26 27  1  0
 26 63  1  0
 28 29  1  0
 29 30  1  0
 29 64  1  6
 31 30  1  6
 32 33  1  0
 32 34  1  0
 32 65  1  6
 33 66  1  0
 33 67  1  0
 33 68  1  0
 34 69  1  0
 34 70  1  0
M  END
>  <i_m_ct_stereo_status>  (69) 
1

>  <s_m_source_file>  (69) 
/var/tmp/pbs.5076255.sched01/tmpuvpulguu/0mmv31ww_.sdf

>  <i_m_source_file_index>  (69) 
37

>  <i_lp_mmshare_version>  (69) 
48012

>  <i_f3d_flags>  (69) 
0

>  <s_epik_input>  (69) 
W0NIM11bQ0BASF0xW0NIMl1bQ0gyXVtDQEhdKFtDQEBIXShDKE8yKT1PKVtDSDNdKVtDQEhdMltDQEBIXTNbQ0gyXVtDSDJdW0NASF0oW0NAQEhdKFtDSDNdKVtDSDJdW0NASF0oW0NIM10pW0NIXT00KUM0W0NAXTMoW0NAXTE1NilPW0NASF02T1tDQEBIXShPNSljN1tjSF1bY0hdW2NIXXM3

>  <s_epik_cmdline>  (69) 
J2VwaWtfcHl0aG9uJywgJy1waHQnLCAnMi4wJywgJy1waCcsICc3LjAnLCAnLXRuJywgJzgnLCAnLW1hJywgJzIwMCcsICctaW1hZScsICc8aW5maWxlLm1hZT4nLCAnLW9tYWUnLCAnPG91dGZpbGUubWFlPic=

>  <r_lp_tautomer_probability>  (69) 
1

>  <r_epik_Ionization_Penalty>  (69) 
4.7361e-15

>  <r_epik_Ionization_Penalty_Charging>  (69) 
0

>  <r_epik_Ionization_Penalty_Neutral>  (69) 
4.7361e-15

>  <r_epik_State_Penalty>  (69) 
-0

>  <r_epik_Charging_Adjusted_Penalty>  (69) 
0

>  <i_epik_Tot_Q>  (69) 
0

>  <i_epik_Tot_abs_Q>  (69) 
0

>  <s_epik_Chemistry_Notes>  (69) 
This compound has an ester and may undergo hydrolysis at high or low pH. This compound contains an acetal/aminal-like group ( X-CH(R)-Y where X, Y are N, S, or O) that may be acid/base labile, releasing an aldehyde.

>  <s_lp_Force_Field>  (69) 
OPLS3e

>  <r_lp_Energy>  (69) 
48.7095

>  <b_lp_Chiralities_Consistent>  (69) 
1

>  <s_lp_Variant>  (69) 
23:0-1

>  <s_i_glide_gridfile>  (69) 
pfpi4k_grid

>  <i_i_glide_lignum>  (69) 
37

>  <i_i_glide_rotatable_bonds>  (69) 
1

>  <r_i_docking_score>  (69) 
-2.46314

>  <r_i_glide_ligand_efficiency>  (69) 
-0.0724453

>  <r_i_glide_ligand_efficiency_sa>  (69) 
-0.234695

>  <r_i_glide_ligand_efficiency_ln>  (69) 
-0.544177

>  <r_i_glide_gscore>  (69) 
-2.46314

>  <r_i_glide_lipo>  (69) 
-0.456498

>  <r_i_glide_hbond>  (69) 
0

>  <r_i_glide_metal>  (69) 
-0

>  <r_i_glide_rewards>  (69) 
-0.111071

>  <r_i_glide_evdw>  (69) 
-36.8456

>  <r_i_glide_ecoul>  (69) 
-0.613893

>  <r_i_glide_erotb>  (69) 
0.0864658

>  <r_i_glide_esite>  (69) 
-0.0476753

>  <r_i_glide_emodel>  (69) 
-42.7366

>  <r_i_glide_energy>  (69) 
-37.4595

>  <r_i_glide_einternal>  (69) 
0.103435

>  <r_i_glide_intrahb_reward>  (69) 
-0

>  <i_i_glide_confnum>  (69) 
2

>  <i_i_glide_posenum>  (69) 
1

>  <r_i_glide_eff_state_penalty>  (69) 
0

>  <ligand_id>  (69) 
23

>  <original_smiles>  (69) 
CC1C=C2C(CCC3C4OC(=O)C(C)C4CCC(C)C45OC(c6cccs6)OC4OC235)C(C)C1

>  <smiles>  (69) 
[H]C1=C2C([H])(C([H])([H])C([H])([H])C3([H])C4([H])OC(=O)C([H])(C([H])([H])[H])C4([H])C([H])([H])C([H])([H])C([H])(C([H])([H])[H])C45OC([H])(c6sc([H])c([H])c6[H])OC4([H])OC235)C([H])(C([H])([H])[H])C([H])([H])C1([H])C([H])([H])[H]

$$$$
23:0:1
     RDKit          3D

 70 76  0  0  1  0  0  0  0  0999 V2000
    6.4436  -10.9510    2.1439 C   0  0  0  0  0  0  0  0  0  0  0  0
    5.4495  -10.0467    2.8888 C   0  0  2  0  0  0  0  0  0  0  0  0
    5.1232   -8.7838    2.1112 C   0  0  0  0  0  0  0  0  0  0  0  0
    5.5094   -7.5382    2.4760 C   0  0  0  0  0  0  0  0  0  0  0  0
    6.5551   -7.3345    3.5796 C   0  0  2  0  0  0  0  0  0  0  0  0
    7.8139   -6.6106    3.0263 C   0  0  0  0  0  0  0  0  0  0  0  0
    7.6269   -5.9723    1.6414 C   0  0  0  0  0  0  0  0  0  0  0  0
    6.2640   -5.2738    1.5377 C   0  0  1  0  0  0  0  0  0  0  0  0
    6.2737   -4.2733    0.3397 C   0  0  1  0  0  0  0  0  0  0  0  0
    5.3719   -4.5232   -0.7202 O   0  0  0  0  0  0  0  0  0  0  0  0
    4.9627   -3.4344   -1.3525 C   0  0  0  0  0  0  0  0  0  0  0  0
    4.1863   -3.3770   -2.2997 O   0  0  0  0  0  0  0  0  0  0  0  0
    5.6208   -2.2259   -0.7177 C   0  0  1  0  0  0  0  0  0  0  0  0
    4.7195   -0.9813   -0.7280 C   0  0  0  0  0  0  0  0  0  0  0  0
    6.1115   -2.7643    0.6395 C   0  0  1  0  0  0  0  0  0  0  0  0
    5.2611   -2.3909    1.8835 C   0  0  0  0  0  0  0  0  0  0  0  0
    3.8450   -2.9922    1.9834 C   0  0  0  0  0  0  0  0  0  0  0  0
    3.6579   -4.2093    2.9457 C   0  0  1  0  0  0  0  0  0  0  0  0
    2.3502   -3.9719    3.7201 C   0  0  0  0  0  0  0  0  0  0  0  0
    3.7147   -5.6329    2.2968 C   0  0  1  0  0  0  0  0  0  0  0  0
    2.9878   -6.5631    3.1101 O   0  0  0  0  0  0  0  0  0  0  0  0
    2.1558   -7.3310    2.2915 C   0  0  1  0  0  0  0  0  0  0  0  0
    0.8134   -7.4950    2.9495 C   0  0  0  0  0  0  0  0  0  0  0  0
    0.0660   -6.5878    3.6650 C   0  0  0  0  0  0  0  0  0  0  0  0
   -1.1591   -7.1122    4.1587 C   0  0  0  0  0  0  0  0  0  0  0  0
   -1.3534   -8.4144    3.8031 C   0  0  0  0  0  0  0  0  0  0  0  0
   -0.0157   -9.0363    2.8836 S   0  0  0  0  0  0  0  0  0  0  0  0
    1.9863   -6.6750    1.0890 O   0  0  0  0  0  0  0  0  0  0  0  0
    3.1561   -5.8959    0.8992 C   0  0  2  0  0  0  0  0  0  0  0  0
    4.3562   -6.6216    0.5058 O   0  0  0  0  0  0  0  0  0  0  0  0
    5.0412   -6.2473    1.7441 C   0  0  2  0  0  0  0  0  0  0  0  0
    6.9872   -8.6341    4.3285 C   0  0  1  0  0  0  0  0  0  0  0  0
    7.4738   -8.3462    5.7591 C   0  0  0  0  0  0  0  0  0  0  0  0
    5.8915   -9.7074    4.3205 C   0  0  0  0  0  0  0  0  0  0  0  0
    6.0379  -11.2613    1.1845 H   0  0  0  0  0  0  0  0  0  0  0  0
    6.6501  -11.8586    2.7117 H   0  0  0  0  0  0  0  0  0  0  0  0
    7.3910  -10.4512    1.9583 H   0  0  0  0  0  0  0  0  0  0  0  0
    4.5143  -10.6021    2.9710 H   0  0  0  0  0  0  0  0  0  0  0  0
    4.4725   -8.9306    1.2631 H   0  0  0  0  0  0  0  0  0  0  0  0
    6.0646   -6.6721    4.2964 H   0  0  0  0  0  0  0  0  0  0  0  0
    8.1048   -5.8426    3.7438 H   0  0  0  0  0  0  0  0  0  0  0  0
    8.6754   -7.2786    2.9621 H   0  0  0  0  0  0  0  0  0  0  0  0
    8.4365   -5.2567    1.4897 H   0  0  0  0  0  0  0  0  0  0  0  0
    7.7275   -6.7270    0.8610 H   0  0  0  0  0  0  0  0  0  0  0  0
    6.3049   -4.6624    2.4342 H   0  0  0  0  0  0  0  0  0  0  0  0
    7.2544   -4.3533   -0.1310 H   0  0  0  0  0  0  0  0  0  0  0  0
    6.4911   -2.0187   -1.3349 H   0  0  0  0  0  0  0  0  0  0  0  0
    4.5120   -0.6573   -1.7506 H   0  0  0  0  0  0  0  0  0  0  0  0
    5.2064   -0.1523   -0.2160 H   0  0  0  0  0  0  0  0  0  0  0  0
    3.7547   -1.1534   -0.2470 H   0  0  0  0  0  0  0  0  0  0  0  0
    7.1009   -2.3414    0.8255 H   0  0  0  0  0  0  0  0  0  0  0  0
    5.8159   -2.5980    2.7994 H   0  0  0  0  0  0  0  0  0  0  0  0
    5.1673   -1.3027    1.9002 H   0  0  0  0  0  0  0  0  0  0  0  0
    3.2396   -2.1716    2.3704 H   0  0  0  0  0  0  0  0  0  0  0  0
    3.4121   -3.1527    1.0022 H   0  0  0  0  0  0  0  0  0  0  0  0
    4.4314   -4.1626    3.7101 H   0  0  0  0  0  0  0  0  0  0  0  0
    1.4983   -3.9930    3.0405 H   0  0  0  0  0  0  0  0  0  0  0  0
    2.3393   -3.0073    4.2280 H   0  0  0  0  0  0  0  0  0  0  0  0
    2.2209   -4.7175    4.5019 H   0  0  0  0  0  0  0  0  0  0  0  0
    2.5885   -8.3106    2.1025 H   0  0  0  0  0  0  0  0  0  0  0  0
    0.3292   -5.5677    3.8816 H   0  0  0  0  0  0  0  0  0  0  0  0
   -1.8353   -6.5326    4.7662 H   0  0  0  0  0  0  0  0  0  0  0  0
   -2.1808   -9.0569    4.0709 H   0  0  0  0  0  0  0  0  0  0  0  0
    2.9781   -5.0409    0.2521 H   0  0  0  0  0  0  0  0  0  0  0  0
    7.8296   -9.0833    3.8007 H   0  0  0  0  0  0  0  0  0  0  0  0
    6.6795   -7.9291    6.3772 H   0  0  0  0  0  0  0  0  0  0  0  0
    8.3036   -7.6418    5.7602 H   0  0  0  0  0  0  0  0  0  0  0  0
    7.8210   -9.2589    6.2438 H   0  0  0  0  0  0  0  0  0  0  0  0
    5.0302   -9.3474    4.8856 H   0  0  0  0  0  0  0  0  0  0  0  0
    6.2325  -10.6108    4.8264 H   0  0  0  0  0  0  0  0  0  0  0  0
  1  2  1  0
  1 35  1  0
  1 36  1  0
  1 37  1  0
  2 34  1  0
  2  3  1  0
  2 38  1  1
  3  4  2  0
  3 39  1  0
  4 31  1  0
  4  5  1  0
  5  6  1  0
  5 32  1  0
  5 40  1  1
  6  7  1  0
  6 41  1  0
  6 42  1  0
  7  8  1  0
  7 43  1  0
  7 44  1  0
  8 31  1  0
  8  9  1  0
  8 45  1  1
  9 15  1  0
  9 10  1  0
  9 46  1  6
 10 11  1  0
 11 12  2  0
 11 13  1  0
 13 14  1  0
 13 15  1  0
 13 47  1  6
 14 48  1  0
 14 49  1  0
 14 50  1  0
 15 16  1  0
 15 51  1  1
 16 17  1  0
 16 52  1  0
 16 53  1  0
 17 18  1  0
 17 54  1  0
 17 55  1  0
 18 19  1  0
 18 20  1  0
 18 56  1  1
 19 57  1  0
 19 58  1  0
 19 59  1  0
 20 29  1  0
 20 31  1  0
 20 21  1  1
 21 22  1  0
 22 23  1  0
 22 28  1  0
 22 60  1  6
 23 27  1  0
 23 24  2  0
 24 25  1  0
 24 61  1  0
 25 26  2  0
 25 62  1  0
 26 27  1  0
 26 63  1  0
 28 29  1  0
 29 30  1  0
 29 64  1  6
 31 30  1  6
 32 33  1  0
 32 34  1  0
 32 65  1  6
 33 66  1  0
 33 67  1  0
 33 68  1  0
 34 69  1  0
 34 70  1  0
M  END
>  <i_m_ct_stereo_status>  (70) 
1

>  <s_m_source_file>  (70) 
/var/tmp/pbs.5076255.sched01/tmpuvpulguu/0mmv31ww_.sdf

>  <i_m_source_file_index>  (70) 
37

>  <i_lp_mmshare_version>  (70) 
48012

>  <i_f3d_flags>  (70) 
0

>  <s_epik_input>  (70) 
W0NIM11bQ0BASF0xW0NIMl1bQ0gyXVtDQEhdKFtDQEBIXShDKE8yKT1PKVtDSDNdKVtDQEhdMltDQEBIXTNbQ0gyXVtDSDJdW0NASF0oW0NAQEhdKFtDSDNdKVtDSDJdW0NASF0oW0NIM10pW0NIXT00KUM0W0NAXTMoW0NAXTE1NilPW0NASF02T1tDQEBIXShPNSljN1tjSF1bY0hdW2NIXXM3

>  <s_epik_cmdline>  (70) 
J2VwaWtfcHl0aG9uJywgJy1waHQnLCAnMi4wJywgJy1waCcsICc3LjAnLCAnLXRuJywgJzgnLCAnLW1hJywgJzIwMCcsICctaW1hZScsICc8aW5maWxlLm1hZT4nLCAnLW9tYWUnLCAnPG91dGZpbGUubWFlPic=

>  <r_lp_tautomer_probability>  (70) 
1

>  <r_epik_Ionization_Penalty>  (70) 
4.7361e-15

>  <r_epik_Ionization_Penalty_Charging>  (70) 
0

>  <r_epik_Ionization_Penalty_Neutral>  (70) 
4.7361e-15

>  <r_epik_State_Penalty>  (70) 
-0

>  <r_epik_Charging_Adjusted_Penalty>  (70) 
0

>  <i_epik_Tot_Q>  (70) 
0

>  <i_epik_Tot_abs_Q>  (70) 
0

>  <s_epik_Chemistry_Notes>  (70) 
This compound has an ester and may undergo hydrolysis at high or low pH. This compound contains an acetal/aminal-like group ( X-CH(R)-Y where X, Y are N, S, or O) that may be acid/base labile, releasing an aldehyde.

>  <s_lp_Force_Field>  (70) 
OPLS3e

>  <r_lp_Energy>  (70) 
48.7095

>  <b_lp_Chiralities_Consistent>  (70) 
1

>  <s_lp_Variant>  (70) 
23:0-1

>  <s_i_glide_gridfile>  (70) 
pfpi4k_grid

>  <i_i_glide_lignum>  (70) 
37

>  <i_i_glide_rotatable_bonds>  (70) 
1

>  <r_i_docking_score>  (70) 
-2.43887

>  <r_i_glide_ligand_efficiency>  (70) 
-0.0717313

>  <r_i_glide_ligand_efficiency_sa>  (70) 
-0.232382

>  <r_i_glide_ligand_efficiency_ln>  (70) 
-0.538814

>  <r_i_glide_gscore>  (70) 
-2.43887

>  <r_i_glide_lipo>  (70) 
-0.390798

>  <r_i_glide_hbond>  (70) 
0

>  <r_i_glide_metal>  (70) 
-0

>  <r_i_glide_rewards>  (70) 
-0.176179

>  <r_i_glide_evdw>  (70) 
-37.6297

>  <r_i_glide_ecoul>  (70) 
-0.406961

>  <r_i_glide_erotb>  (70) 
0.0864658

>  <r_i_glide_esite>  (70) 
-0.0158258

>  <r_i_glide_emodel>  (70) 
-42.8679

>  <r_i_glide_energy>  (70) 
-38.0367

>  <r_i_glide_einternal>  (70) 
1.02139

>  <r_i_glide_intrahb_reward>  (70) 
-0

>  <i_i_glide_confnum>  (70) 
4

>  <i_i_glide_posenum>  (70) 
11

>  <r_i_glide_eff_state_penalty>  (70) 
0

>  <ligand_id>  (70) 
23

>  <original_smiles>  (70) 
CC1C=C2C(CCC3C4OC(=O)C(C)C4CCC(C)C45OC(c6cccs6)OC4OC235)C(C)C1

>  <smiles>  (70) 
[H]C1=C2C([H])(C([H])([H])C([H])([H])C3([H])C4([H])OC(=O)C([H])(C([H])([H])[H])C4([H])C([H])([H])C([H])([H])C([H])(C([H])([H])[H])C45OC([H])(c6sc([H])c([H])c6[H])OC4([H])OC235)C([H])(C([H])([H])[H])C([H])([H])C1([H])C([H])([H])[H]

$$$$
23:0:2
     RDKit          3D

 70 76  0  0  1  0  0  0  0  0999 V2000
    6.4913  -10.7947    1.6724 C   0  0  0  0  0  0  0  0  0  0  0  0
    5.4584   -9.9853    2.4671 C   0  0  2  0  0  0  0  0  0  0  0  0
    5.0964   -8.6760    1.7913 C   0  0  0  0  0  0  0  0  0  0  0  0
    5.4349   -7.4506    2.2569 C   0  0  0  0  0  0  0  0  0  0  0  0
    6.4619   -7.3055    3.3936 C   0  0  2  0  0  0  0  0  0  0  0  0
    7.7018   -6.4963    2.9202 C   0  0  0  0  0  0  0  0  0  0  0  0
    7.5125   -5.7546    1.5877 C   0  0  0  0  0  0  0  0  0  0  0  0
    6.1274   -5.0956    1.5192 C   0  0  1  0  0  0  0  0  0  0  0  0
    6.1223   -4.0056    0.4003 C   0  0  1  0  0  0  0  0  0  0  0  0
    5.2518   -4.1971   -0.7038 O   0  0  0  0  0  0  0  0  0  0  0  0
    4.8067   -3.0751   -1.2369 C   0  0  0  0  0  0  0  0  0  0  0  0
    4.0389   -2.9718   -2.1855 O   0  0  0  0  0  0  0  0  0  0  0  0
    5.4057   -1.9002   -0.4919 C   0  0  1  0  0  0  0  0  0  0  0  0
    4.4747   -0.6811   -0.4092 C   0  0  0  0  0  0  0  0  0  0  0  0
    5.9009   -2.5359    0.8262 C   0  0  1  0  0  0  0  0  0  0  0  0
    5.0198   -2.2908    2.0815 C   0  0  0  0  0  0  0  0  0  0  0  0
    3.6219   -2.9416    2.1096 C   0  0  0  0  0  0  0  0  0  0  0  0
    3.4532   -4.2419    2.9631 C   0  0  1  0  0  0  0  0  0  0  0  0
    2.1138   -4.1349    3.7252 C   0  0  0  0  0  0  0  0  0  0  0  0
    3.5827   -5.6013    2.1995 C   0  0  1  0  0  0  0  0  0  0  0  0
    2.8868   -6.6263    2.9141 O   0  0  0  0  0  0  0  0  0  0  0  0
    2.0869   -7.3415    2.0289 C   0  0  1  0  0  0  0  0  0  0  0  0
    0.7358   -7.5776    2.6510 C   0  0  0  0  0  0  0  0  0  0  0  0
   -0.4528   -7.8237    2.0080 C   0  0  0  0  0  0  0  0  0  0  0  0
   -1.5296   -8.1207    2.8930 C   0  0  0  0  0  0  0  0  0  0  0  0
   -1.1496   -8.1184    4.2043 C   0  0  0  0  0  0  0  0  0  0  0  0
    0.5372   -7.7344    4.3837 S   0  0  0  0  0  0  0  0  0  0  0  0
    1.9184   -6.6001    0.8869 O   0  0  0  0  0  0  0  0  0  0  0  0
    3.0587   -5.7672    0.7801 C   0  0  2  0  0  0  0  0  0  0  0  0
    4.2883   -6.4180    0.3502 O   0  0  0  0  0  0  0  0  0  0  0  0
    4.9388   -6.1234    1.6248 C   0  0  2  0  0  0  0  0  0  0  0  0
    6.9256   -8.6478    4.0416 C   0  0  1  0  0  0  0  0  0  0  0  0
    7.3803   -8.4610    5.4976 C   0  0  0  0  0  0  0  0  0  0  0  0
    5.8674   -9.7499    3.9296 C   0  0  0  0  0  0  0  0  0  0  0  0
    6.1220  -11.0358    0.6785 H   0  0  0  0  0  0  0  0  0  0  0  0
    6.7178  -11.7382    2.1630 H   0  0  0  0  0  0  0  0  0  0  0  0
    7.4125  -10.2431    1.5464 H   0  0  0  0  0  0  0  0  0  0  0  0
    4.5436  -10.5763    2.4867 H   0  0  0  0  0  0  0  0  0  0  0  0
    4.4646   -8.7778    0.9179 H   0  0  0  0  0  0  0  0  0  0  0  0
    5.9358   -6.7206    4.1514 H   0  0  0  0  0  0  0  0  0  0  0  0
    7.9534   -5.7823    3.7046 H   0  0  0  0  0  0  0  0  0  0  0  0
    8.5878   -7.1294    2.8219 H   0  0  0  0  0  0  0  0  0  0  0  0
    8.3007   -5.0007    1.5102 H   0  0  0  0  0  0  0  0  0  0  0  0
    7.6509   -6.4423    0.7541 H   0  0  0  0  0  0  0  0  0  0  0  0
    6.1393   -4.5573    2.4620 H   0  0  0  0  0  0  0  0  0  0  0  0
    7.1148   -4.0121   -0.0535 H   0  0  0  0  0  0  0  0  0  0  0  0
    6.2780   -1.6134   -1.0745 H   0  0  0  0  0  0  0  0  0  0  0  0
    4.2732   -0.2894   -1.4077 H   0  0  0  0  0  0  0  0  0  0  0  0
    4.9275    0.1318    0.1677 H   0  0  0  0  0  0  0  0  0  0  0  0
    3.5096   -0.9257    0.0358 H   0  0  0  0  0  0  0  0  0  0  0  0
    6.8727   -2.0878    1.0594 H   0  0  0  0  0  0  0  0  0  0  0  0
    5.5769   -2.5481    2.9821 H   0  0  0  0  0  0  0  0  0  0  0  0
    4.8882   -1.2099    2.1802 H   0  0  0  0  0  0  0  0  0  0  0  0
    2.9837   -2.1776    2.5519 H   0  0  0  0  0  0  0  0  0  0  0  0
    3.2114   -3.0344    1.1093 H   0  0  0  0  0  0  0  0  0  0  0  0
    4.2121   -4.2302    3.7430 H   0  0  0  0  0  0  0  0  0  0  0  0
    1.2626   -4.1492    3.0438 H   0  0  0  0  0  0  0  0  0  0  0  0
    2.0662   -3.2135    4.3077 H   0  0  0  0  0  0  0  0  0  0  0  0
    1.9891   -4.9481    4.4416 H   0  0  0  0  0  0  0  0  0  0  0  0
    2.5321   -8.2985    1.7735 H   0  0  0  0  0  0  0  0  0  0  0  0
   -0.5775   -7.8500    0.9319 H   0  0  0  0  0  0  0  0  0  0  0  0
   -2.5200   -8.3788    2.5362 H   0  0  0  0  0  0  0  0  0  0  0  0
   -1.7493   -8.3800    5.0586 H   0  0  0  0  0  0  0  0  0  0  0  0
    2.8639   -4.8649    0.1979 H   0  0  0  0  0  0  0  0  0  0  0  0
    7.7900   -9.0240    3.4932 H   0  0  0  0  0  0  0  0  0  0  0  0
    6.5618   -8.1238    6.1327 H   0  0  0  0  0  0  0  0  0  0  0  0
    8.1851   -7.7302    5.5697 H   0  0  0  0  0  0  0  0  0  0  0  0
    7.7528   -9.3952    5.9109 H   0  0  0  0  0  0  0  0  0  0  0  0
    4.9856   -9.4643    4.5050 H   0  0  0  0  0  0  0  0  0  0  0  0
    6.2303  -10.6793    4.3640 H   0  0  0  0  0  0  0  0  0  0  0  0
  1  2  1  0
  1 35  1  0
  1 36  1  0
  1 37  1  0
  2 34  1  0
  2  3  1  0
  2 38  1  1
  3  4  2  0
  3 39  1  0
  4 31  1  0
  4  5  1  0
  5  6  1  0
  5 32  1  0
  5 40  1  1
  6  7  1  0
  6 41  1  0
  6 42  1  0
  7  8  1  0
  7 43  1  0
  7 44  1  0
  8 31  1  0
  8  9  1  0
  8 45  1  1
  9 15  1  0
  9 10  1  0
  9 46  1  6
 10 11  1  0
 11 12  2  0
 11 13  1  0
 13 14  1  0
 13 15  1  0
 13 47  1  6
 14 48  1  0
 14 49  1  0
 14 50  1  0
 15 16  1  0
 15 51  1  1
 16 17  1  0
 16 52  1  0
 16 53  1  0
 17 18  1  0
 17 54  1  0
 17 55  1  0
 18 19  1  0
 18 20  1  0
 18 56  1  1
 19 57  1  0
 19 58  1  0
 19 59  1  0
 20 29  1  0
 20 31  1  0
 20 21  1  1
 21 22  1  0
 22 23  1  0
 22 28  1  0
 22 60  1  6
 23 27  1  0
 23 24  2  0
 24 25  1  0
 24 61  1  0
 25 26  2  0
 25 62  1  0
 26 27  1  0
 26 63  1  0
 28 29  1  0
 29 30  1  0
 29 64  1  6
 31 30  1  6
 32 33  1  0
 32 34  1  0
 32 65  1  6
 33 66  1  0
 33 67  1  0
 33 68  1  0
 34 69  1  0
 34 70  1  0
M  END
>  <i_m_ct_stereo_status>  (71) 
1

>  <s_m_source_file>  (71) 
/var/tmp/pbs.5076255.sched01/tmpuvpulguu/0mmv31ww_.sdf

>  <i_m_source_file_index>  (71) 
37

>  <i_lp_mmshare_version>  (71) 
48012

>  <i_f3d_flags>  (71) 
0

>  <s_epik_input>  (71) 
W0NIM11bQ0BASF0xW0NIMl1bQ0gyXVtDQEhdKFtDQEBIXShDKE8yKT1PKVtDSDNdKVtDQEhdMltDQEBIXTNbQ0gyXVtDSDJdW0NASF0oW0NAQEhdKFtDSDNdKVtDSDJdW0NASF0oW0NIM10pW0NIXT00KUM0W0NAXTMoW0NAXTE1NilPW0NASF02T1tDQEBIXShPNSljN1tjSF1bY0hdW2NIXXM3

>  <s_epik_cmdline>  (71) 
J2VwaWtfcHl0aG9uJywgJy1waHQnLCAnMi4wJywgJy1waCcsICc3LjAnLCAnLXRuJywgJzgnLCAnLW1hJywgJzIwMCcsICctaW1hZScsICc8aW5maWxlLm1hZT4nLCAnLW9tYWUnLCAnPG91dGZpbGUubWFlPic=

>  <r_lp_tautomer_probability>  (71) 
1

>  <r_epik_Ionization_Penalty>  (71) 
4.7361e-15

>  <r_epik_Ionization_Penalty_Charging>  (71) 
0

>  <r_epik_Ionization_Penalty_Neutral>  (71) 
4.7361e-15

>  <r_epik_State_Penalty>  (71) 
-0

>  <r_epik_Charging_Adjusted_Penalty>  (71) 
0

>  <i_epik_Tot_Q>  (71) 
0

>  <i_epik_Tot_abs_Q>  (71) 
0

>  <s_epik_Chemistry_Notes>  (71) 
This compound has an ester and may undergo hydrolysis at high or low pH. This compound contains an acetal/aminal-like group ( X-CH(R)-Y where X, Y are N, S, or O) that may be acid/base labile, releasing an aldehyde.

>  <s_lp_Force_Field>  (71) 
OPLS3e

>  <r_lp_Energy>  (71) 
48.7095

>  <b_lp_Chiralities_Consistent>  (71) 
1

>  <s_lp_Variant>  (71) 
23:0-1

>  <s_i_glide_gridfile>  (71) 
pfpi4k_grid

>  <i_i_glide_lignum>  (71) 
37

>  <i_i_glide_rotatable_bonds>  (71) 
1

>  <r_i_docking_score>  (71) 
-2.39617

>  <r_i_glide_ligand_efficiency>  (71) 
-0.0704755

>  <r_i_glide_ligand_efficiency_sa>  (71) 
-0.228313

>  <r_i_glide_ligand_efficiency_ln>  (71) 
-0.529381

>  <r_i_glide_gscore>  (71) 
-2.39617

>  <r_i_glide_lipo>  (71) 
-0.435828

>  <r_i_glide_hbond>  (71) 
0

>  <r_i_glide_metal>  (71) 
-0

>  <r_i_glide_rewards>  (71) 
-0.125279

>  <r_i_glide_evdw>  (71) 
-37.704

>  <r_i_glide_ecoul>  (71) 
-0.0578584

>  <r_i_glide_erotb>  (71) 
0.0864658

>  <r_i_glide_esite>  (71) 
-0.0276461

>  <r_i_glide_emodel>  (71) 
-42.6866

>  <r_i_glide_energy>  (71) 
-37.7619

>  <r_i_glide_einternal>  (71) 
0.49894

>  <r_i_glide_intrahb_reward>  (71) 
-0

>  <i_i_glide_confnum>  (71) 
1

>  <i_i_glide_posenum>  (71) 
34

>  <r_i_glide_eff_state_penalty>  (71) 
0

>  <ligand_id>  (71) 
23

>  <original_smiles>  (71) 
CC1C=C2C(CCC3C4OC(=O)C(C)C4CCC(C)C45OC(c6cccs6)OC4OC235)C(C)C1

>  <smiles>  (71) 
[H]C1=C2C([H])(C([H])([H])C([H])([H])C3([H])C4([H])OC(=O)C([H])(C([H])([H])[H])C4([H])C([H])([H])C([H])([H])C([H])(C([H])([H])[H])C45OC([H])(c6sc([H])c([H])c6[H])OC4([H])OC235)C([H])(C([H])([H])[H])C([H])([H])C1([H])C([H])([H])[H]

$$$$
24:0:0
     RDKit          3D

 62 67  0  0  1  0  0  0  0  0999 V2000
    6.1343   -5.5982    4.4391 C   0  0  0  0  0  0  0  0  0  0  0  0
    6.2548   -5.0423    3.0226 C   0  0  2  0  0  0  0  0  0  0  0  0
    5.8145   -3.6536    2.9168 O   0  0  0  0  0  0  0  0  0  0  0  0
    4.6828   -4.0260    2.1031 C   0  0  2  0  0  0  0  0  0  0  0  0
    3.5112   -3.7790    3.1005 C   0  0  0  0  0  0  0  0  0  0  0  0
    2.8307   -4.9615    3.7453 C   0  0  0  0  0  0  0  0  0  0  0  0
    2.6627   -4.9885    5.0917 C   0  0  0  0  0  0  0  0  0  0  0  0
    2.0591   -6.1605    5.7707 C   0  0  0  0  0  0  0  0  0  0  0  0
    1.7423   -6.1404    6.9587 O   0  0  0  0  0  0  0  0  0  0  0  0
    1.7930   -7.4323    4.9618 C   0  0  0  0  0  0  0  0  0  0  0  0
    2.6400   -7.3216    3.7090 C   0  0  0  0  0  0  0  0  0  0  0  0
    3.7316   -8.0901    3.5487 C   0  0  0  0  0  0  0  0  0  0  0  0
    4.7781   -7.8747    2.4713 C   0  0  0  0  0  0  0  0  0  0  0  0
    4.5338   -6.6309    1.5794 C   0  0  2  0  0  0  0  0  0  0  0  0
    5.3498   -5.3948    1.8634 C   0  0  2  0  0  0  0  0  0  0  0  0
    3.0525   -6.2417    1.4336 C   0  0  2  0  0  0  0  0  0  0  0  0
    2.5467   -7.3893    1.0009 F   0  0  0  0  0  0  0  0  0  0  0  0
    2.8053   -5.2554    0.1886 C   0  0  1  0  0  0  0  0  0  0  0  0
    1.4638   -5.4571   -0.2419 O   0  0  0  0  0  0  0  0  0  0  0  0
    3.1047   -3.6843    0.1053 C   0  0  2  0  0  0  0  0  0  0  0  0
    3.0473   -3.1464   -1.3921 C   0  0  1  0  0  0  0  0  0  0  0  0
    1.7476   -3.4073   -2.1788 C   0  0  0  0  0  0  0  0  0  0  0  0
    3.0208   -1.7375   -1.3647 O   0  0  0  0  0  0  0  0  0  0  0  0
    4.2947   -3.5008   -2.2389 C   0  0  0  0  0  0  0  0  0  0  0  0
    5.5215   -3.9182   -1.4226 C   0  0  0  0  0  0  0  0  0  0  0  0
    5.6267   -3.1286   -0.1271 C   0  0  0  0  0  0  0  0  0  0  0  0
    6.6618   -2.4983    0.1167 O   0  0  0  0  0  0  0  0  0  0  0  0
    4.4175   -3.1443    0.8497 C   0  0  2  0  0  0  0  0  0  0  0  0
    4.2580   -1.6529    1.2956 C   0  0  0  0  0  0  0  0  0  0  0  0
    2.3395   -6.0967    2.8383 C   0  0  2  0  0  0  0  0  0  0  0  0
    0.8202   -5.9224    2.6279 C   0  0  0  0  0  0  0  0  0  0  0  0
    6.6821   -6.5320    4.5278 H   0  0  0  0  0  0  0  0  0  0  0  0
    5.1106   -5.8075    4.7130 H   0  0  0  0  0  0  0  0  0  0  0  0
    6.5577   -4.9167    5.1799 H   0  0  0  0  0  0  0  0  0  0  0  0
    7.2742   -5.0845    2.6741 H   0  0  0  0  0  0  0  0  0  0  0  0
    3.8731   -3.1287    3.8971 H   0  0  0  0  0  0  0  0  0  0  0  0
    2.6889   -3.2189    2.6647 H   0  0  0  0  0  0  0  0  0  0  0  0
    3.0135   -4.1735    5.7169 H   0  0  0  0  0  0  0  0  0  0  0  0
    2.0757   -8.3062    5.5438 H   0  0  0  0  0  0  0  0  0  0  0  0
    0.7320   -7.5332    4.7356 H   0  0  0  0  0  0  0  0  0  0  0  0
    3.9373   -8.8845    4.2500 H   0  0  0  0  0  0  0  0  0  0  0  0
    5.7664   -7.8499    2.9269 H   0  0  0  0  0  0  0  0  0  0  0  0
    4.7639   -8.7734    1.8515 H   0  0  0  0  0  0  0  0  0  0  0  0
    4.8609   -6.9795    0.5920 H   0  0  0  0  0  0  0  0  0  0  0  0
    6.0685   -5.3317    1.0496 H   0  0  0  0  0  0  0  0  0  0  0  0
    3.4244   -5.6915   -0.5923 H   0  0  0  0  0  0  0  0  0  0  0  0
    1.4750   -5.3692   -1.1808 H   0  0  0  0  0  0  0  0  0  0  0  0
    2.2518   -3.2262    0.6056 H   0  0  0  0  0  0  0  0  0  0  0  0
    1.6741   -4.4351   -2.5008 H   0  0  0  0  0  0  0  0  0  0  0  0
    1.7044   -2.8190   -3.0995 H   0  0  0  0  0  0  0  0  0  0  0  0
    0.8456   -3.1923   -1.5992 H   0  0  0  0  0  0  0  0  0  0  0  0
    2.0984   -1.4579   -1.1322 H   0  0  0  0  0  0  0  0  0  0  0  0
    4.1131   -4.3143   -2.9253 H   0  0  0  0  0  0  0  0  0  0  0  0
    4.5360   -2.6979   -2.9347 H   0  0  0  0  0  0  0  0  0  0  0  0
    5.4521   -4.9719   -1.1473 H   0  0  0  0  0  0  0  0  0  0  0  0
    6.4250   -3.8053   -2.0249 H   0  0  0  0  0  0  0  0  0  0  0  0
    3.2476   -1.3949    1.6037 H   0  0  0  0  0  0  0  0  0  0  0  0
    4.5044   -0.9507    0.5007 H   0  0  0  0  0  0  0  0  0  0  0  0
    4.9309   -1.3965    2.1142 H   0  0  0  0  0  0  0  0  0  0  0  0
    0.2530   -5.8109    3.5510 H   0  0  0  0  0  0  0  0  0  0  0  0
    0.3762   -6.7302    2.0449 H   0  0  0  0  0  0  0  0  0  0  0  0
    0.6727   -5.0063    2.0941 H   0  0  0  0  0  0  0  0  0  0  0  0
  1  2  1  0
  1 32  1  0
  1 33  1  0
  1 34  1  0
  2 15  1  0
  2  3  1  0
  2 35  1  6
  4  3  1  1
  4 15  1  0
  4 28  1  0
  4  5  1  0
  5  6  1  0
  5 36  1  0
  5 37  1  0
  6 30  1  0
  6  7  2  0
  7  8  1  0
  7 38  1  0
  8  9  2  0
  8 10  1  0
 10 11  1  0
 10 39  1  0
 10 40  1  0
 11 30  1  0
 11 12  2  0
 12 13  1  0
 12 41  1  0
 13 14  1  0
 13 42  1  0
 13 43  1  0
 14 15  1  0
 14 16  1  0
 14 44  1  6
 15 45  1  6
 16 17  1  6
 16 18  1  0
 16 30  1  0
 18 19  1  0
 18 20  1  0
 18 46  1  6
 19 47  1  0
 20 28  1  0
 20 21  1  0
 20 48  1  1
 21 22  1  0
 21 23  1  1
 21 24  1  0
 22 49  1  0
 22 50  1  0
 22 51  1  0
 23 52  1  0
 24 25  1  0
 24 53  1  0
 24 54  1  0
 25 26  1  0
 25 55  1  0
 25 56  1  0
 26 27  2  0
 26 28  1  0
 28 29  1  1
 29 57  1  0
 29 58  1  0
 29 59  1  0
 30 31  1  6
 31 60  1  0
 31 61  1  0
 31 62  1  0
M  END
>  <i_m_ct_stereo_status>  (72) 
1

>  <s_m_source_file>  (72) 
/var/tmp/pbs.5076255.sched01/tmpuvpulguu/0mmv31ww_.sdf

>  <i_m_source_file_index>  (72) 
38

>  <i_lp_mmshare_version>  (72) 
48012

>  <i_f3d_flags>  (72) 
0

>  <s_epik_input>  (72) 
W0NIM11bQ0BdMShbT0hdKVtDSDJdW0NIMl1DKD1PKVtDQEBdMihbQ0gzXSlbQ0BASF0xW0NASF0oW09IXSlbQ0BAXShGKShbQ0BIXTNbQ0BASF0oW0NAXTI0NSlbQ0BASF0oTzQpW0NIM10pW0NAXTYoW0NIM10pQyhbQ0gyXTUpPVtDSF1DKD1PKVtDSDJdQzY9W0NIXVtDSDJdMw==

>  <s_epik_cmdline>  (72) 
J2VwaWtfcHl0aG9uJywgJy1waHQnLCAnMi4wJywgJy1waCcsICc3LjAnLCAnLXRuJywgJzgnLCAnLW1hJywgJzIwMCcsICctaW1hZScsICc8aW5maWxlLm1hZT4nLCAnLW9tYWUnLCAnPG91dGZpbGUubWFlPic=

>  <r_lp_tautomer_probability>  (72) 
1

>  <r_epik_Ionization_Penalty>  (72) 
1.65168e-06

>  <r_epik_Ionization_Penalty_Charging>  (72) 
0

>  <r_epik_Ionization_Penalty_Neutral>  (72) 
1.65168e-06

>  <r_epik_State_Penalty>  (72) 
-0

>  <r_epik_Charging_Adjusted_Penalty>  (72) 
0

>  <i_epik_Tot_Q>  (72) 
0

>  <i_epik_Tot_abs_Q>  (72) 
0

>  <s_lp_Force_Field>  (72) 
OPLS3e

>  <r_lp_Energy>  (72) 
96.4227

>  <b_lp_Chiralities_Consistent>  (72) 
1

>  <s_lp_Variant>  (72) 
24:0-1

>  <s_i_glide_gridfile>  (72) 
pfpi4k_grid

>  <i_i_glide_lignum>  (72) 
38

>  <i_i_glide_rotatable_bonds>  (72) 
2

>  <r_i_docking_score>  (72) 
-3.87323

>  <r_i_glide_ligand_efficiency>  (72) 
-0.124943

>  <r_i_glide_ligand_efficiency_sa>  (72) 
-0.392493

>  <r_i_glide_ligand_efficiency_ln>  (72) 
-0.873532

>  <r_i_glide_gscore>  (72) 
-3.87323

>  <r_i_glide_lipo>  (72) 
-0.327181

>  <r_i_glide_hbond>  (72) 
-0.457048

>  <r_i_glide_metal>  (72) 
-0

>  <r_i_glide_rewards>  (72) 
-0.536322

>  <r_i_glide_evdw>  (72) 
-9.30706

>  <r_i_glide_ecoul>  (72) 
-13.9076

>  <r_i_glide_erotb>  (72) 
0

>  <r_i_glide_esite>  (72) 
-0.0011827

>  <r_i_glide_emodel>  (72) 
-28.91

>  <r_i_glide_energy>  (72) 
-23.2147

>  <r_i_glide_einternal>  (72) 
1.01809

>  <r_i_glide_intrahb_reward>  (72) 
-0

>  <i_i_glide_confnum>  (72) 
2

>  <i_i_glide_posenum>  (72) 
13

>  <r_i_glide_eff_state_penalty>  (72) 
0

>  <ligand_id>  (72) 
24

>  <original_smiles>  (72) 
CC1OC23CC4=CC(=O)CC5=CCC(C12)C(F)(C(O)C1C(C)(O)CCC(=O)C13C)C54C

>  <smiles>  (72) 
[H]OC1([H])C2([H])C(O[H])(C([H])([H])[H])C([H])([H])C([H])([H])C(=O)C2(C([H])([H])[H])C23OC([H])(C([H])([H])[H])C2([H])C2([H])C([H])([H])C([H])=C4C([H])([H])C(=O)C([H])=C(C3([H])[H])C4(C([H])([H])[H])C12F

$$$$
24:0:1
     RDKit          3D

 62 67  0  0  1  0  0  0  0  0999 V2000
    3.8286   -3.2675    6.3332 C   0  0  0  0  0  0  0  0  0  0  0  0
    4.5352   -2.6950    5.1063 C   0  0  2  0  0  0  0  0  0  0  0  0
    3.7480   -1.6790    4.4129 O   0  0  0  0  0  0  0  0  0  0  0  0
    3.5366   -2.5630    3.2678 C   0  0  2  0  0  0  0  0  0  0  0  0
    2.0234   -2.9254    3.4096 C   0  0  0  0  0  0  0  0  0  0  0  0
    1.6382   -4.3063    3.8840 C   0  0  0  0  0  0  0  0  0  0  0  0
    0.7394   -4.4212    4.8988 C   0  0  0  0  0  0  0  0  0  0  0  0
    0.3652   -5.7329    5.4686 C   0  0  0  0  0  0  0  0  0  0  0  0
   -0.5568   -5.8561    6.2733 O   0  0  0  0  0  0  0  0  0  0  0  0
    1.1470   -6.9741    5.0231 C   0  0  0  0  0  0  0  0  0  0  0  0
    2.4402   -6.4739    4.3980 C   0  0  0  0  0  0  0  0  0  0  0  0
    3.6114   -6.6151    5.0439 C   0  0  0  0  0  0  0  0  0  0  0  0
    4.8976   -5.9115    4.6586 C   0  0  0  0  0  0  0  0  0  0  0  0
    4.7504   -4.9278    3.4709 C   0  0  2  0  0  0  0  0  0  0  0  0
    4.6852   -3.4444    3.7920 C   0  0  2  0  0  0  0  0  0  0  0  0
    3.6567   -5.3145    2.4611 C   0  0  2  0  0  0  0  0  0  0  0  0
    4.0507   -6.5562    2.1383 F   0  0  0  0  0  0  0  0  0  0  0  0
    3.8166   -4.5559    1.0576 C   0  0  1  0  0  0  0  0  0  0  0  0
    3.1223   -5.3610    0.1223 O   0  0  0  0  0  0  0  0  0  0  0  0
    3.4368   -3.0369    0.7289 C   0  0  2  0  0  0  0  0  0  0  0  0
    4.0215   -2.5795   -0.6770 C   0  0  1  0  0  0  0  0  0  0  0  0
    3.6927   -3.4515   -1.9108 C   0  0  0  0  0  0  0  0  0  0  0  0
    3.4155   -1.3584   -1.0595 O   0  0  0  0  0  0  0  0  0  0  0  0
    5.5600   -2.3652   -0.6212 C   0  0  0  0  0  0  0  0  0  0  0  0
    6.1293   -2.0829    0.7811 C   0  0  0  0  0  0  0  0  0  0  0  0
    5.1434   -1.3322    1.6697 C   0  0  0  0  0  0  0  0  0  0  0  0
    5.4902   -0.2957    2.2373 O   0  0  0  0  0  0  0  0  0  0  0  0
    3.7221   -1.9281    1.8528 C   0  0  2  0  0  0  0  0  0  0  0  0
    2.7601   -0.7005    1.7137 C   0  0  0  0  0  0  0  0  0  0  0  0
    2.2585   -5.5331    3.1881 C   0  0  2  0  0  0  0  0  0  0  0  0
    1.2189   -6.1094    2.1911 C   0  0  0  0  0  0  0  0  0  0  0  0
    4.5219   -3.8399    6.9489 H   0  0  0  0  0  0  0  0  0  0  0  0
    3.0262   -3.9470    6.0703 H   0  0  0  0  0  0  0  0  0  0  0  0
    3.4136   -2.4848    6.9658 H   0  0  0  0  0  0  0  0  0  0  0  0
    5.5021   -2.2708    5.3938 H   0  0  0  0  0  0  0  0  0  0  0  0
    1.5415   -2.1858    4.0539 H   0  0  0  0  0  0  0  0  0  0  0  0
    1.4792   -2.8358    2.4752 H   0  0  0  0  0  0  0  0  0  0  0  0
    0.3034   -3.5464    5.3625 H   0  0  0  0  0  0  0  0  0  0  0  0
    1.3566   -7.6088    5.8838 H   0  0  0  0  0  0  0  0  0  0  0  0
    0.5644   -7.5757    4.3275 H   0  0  0  0  0  0  0  0  0  0  0  0
    3.6549   -7.2098    5.9475 H   0  0  0  0  0  0  0  0  0  0  0  0
    5.3279   -5.4200    5.5295 H   0  0  0  0  0  0  0  0  0  0  0  0
    5.6016   -6.7015    4.3898 H   0  0  0  0  0  0  0  0  0  0  0  0
    5.6936   -5.0636    2.9376 H   0  0  0  0  0  0  0  0  0  0  0  0
    5.6406   -3.0472    3.4610 H   0  0  0  0  0  0  0  0  0  0  0  0
    4.8716   -4.6687    0.8068 H   0  0  0  0  0  0  0  0  0  0  0  0
    3.4331   -5.1888   -0.7601 H   0  0  0  0  0  0  0  0  0  0  0  0
    2.3596   -3.0519    0.5815 H   0  0  0  0  0  0  0  0  0  0  0  0
    4.2776   -4.3746   -1.9150 H   0  0  0  0  0  0  0  0  0  0  0  0
    3.9567   -2.9426   -2.8399 H   0  0  0  0  0  0  0  0  0  0  0  0
    2.6303   -3.7042   -1.9673 H   0  0  0  0  0  0  0  0  0  0  0  0
    2.4591   -1.4171   -0.9852 H   0  0  0  0  0  0  0  0  0  0  0  0
    6.0743   -3.2563   -0.9893 H   0  0  0  0  0  0  0  0  0  0  0  0
    5.8465   -1.5680   -1.3075 H   0  0  0  0  0  0  0  0  0  0  0  0
    6.3594   -3.0262    1.2753 H   0  0  0  0  0  0  0  0  0  0  0  0
    7.0714   -1.5374    0.7127 H   0  0  0  0  0  0  0  0  0  0  0  0
    1.7608   -0.9689    1.3776 H   0  0  0  0  0  0  0  0  0  0  0  0
    3.1189    0.0401    0.9968 H   0  0  0  0  0  0  0  0  0  0  0  0
    2.6543   -0.1556    2.6538 H   0  0  0  0  0  0  0  0  0  0  0  0
    0.2407   -6.2922    2.6301 H   0  0  0  0  0  0  0  0  0  0  0  0
    1.5581   -7.0426    1.7412 H   0  0  0  0  0  0  0  0  0  0  0  0
    1.0339   -5.4137    1.3840 H   0  0  0  0  0  0  0  0  0  0  0  0
  1  2  1  0
  1 32  1  0
  1 33  1  0
  1 34  1  0
  2 15  1  0
  2  3  1  0
  2 35  1  1
  4  3  1  1
  4 15  1  0
  4 28  1  0
  4  5  1  0
  5  6  1  0
  5 36  1  0
  5 37  1  0
  6 30  1  0
  6  7  2  0
  7  8  1  0
  7 38  1  0
  8  9  2  0
  8 10  1  0
 10 11  1  0
 10 39  1  0
 10 40  1  0
 11 30  1  0
 11 12  2  0
 12 13  1  0
 12 41  1  0
 13 14  1  0
 13 42  1  0
 13 43  1  0
 14 15  1  0
 14 16  1  0
 14 44  1  6
 15 45  1  6
 16 17  1  6
 16 18  1  0
 16 30  1  0
 18 19  1  0
 18 20  1  0
 18 46  1  6
 19 47  1  0
 20 28  1  0
 20 21  1  0
 20 48  1  6
 21 22  1  0
 21 23  1  6
 21 24  1  0
 22 49  1  0
 22 50  1  0
 22 51  1  0
 23 52  1  0
 24 25  1  0
 24 53  1  0
 24 54  1  0
 25 26  1  0
 25 55  1  0
 25 56  1  0
 26 27  2  0
 26 28  1  0
 28 29  1  6
 29 57  1  0
 29 58  1  0
 29 59  1  0
 30 31  1  6
 31 60  1  0
 31 61  1  0
 31 62  1  0
M  END
>  <i_m_ct_stereo_status>  (73) 
1

>  <s_m_source_file>  (73) 
/var/tmp/pbs.5076255.sched01/tmpuvpulguu/0mmv31ww_.sdf

>  <i_m_source_file_index>  (73) 
38

>  <i_lp_mmshare_version>  (73) 
48012

>  <i_f3d_flags>  (73) 
0

>  <s_epik_input>  (73) 
W0NIM11bQ0BdMShbT0hdKVtDSDJdW0NIMl1DKD1PKVtDQEBdMihbQ0gzXSlbQ0BASF0xW0NASF0oW09IXSlbQ0BAXShGKShbQ0BIXTNbQ0BASF0oW0NAXTI0NSlbQ0BASF0oTzQpW0NIM10pW0NAXTYoW0NIM10pQyhbQ0gyXTUpPVtDSF1DKD1PKVtDSDJdQzY9W0NIXVtDSDJdMw==

>  <s_epik_cmdline>  (73) 
J2VwaWtfcHl0aG9uJywgJy1waHQnLCAnMi4wJywgJy1waCcsICc3LjAnLCAnLXRuJywgJzgnLCAnLW1hJywgJzIwMCcsICctaW1hZScsICc8aW5maWxlLm1hZT4nLCAnLW9tYWUnLCAnPG91dGZpbGUubWFlPic=

>  <r_lp_tautomer_probability>  (73) 
1

>  <r_epik_Ionization_Penalty>  (73) 
1.65168e-06

>  <r_epik_Ionization_Penalty_Charging>  (73) 
0

>  <r_epik_Ionization_Penalty_Neutral>  (73) 
1.65168e-06

>  <r_epik_State_Penalty>  (73) 
-0

>  <r_epik_Charging_Adjusted_Penalty>  (73) 
0

>  <i_epik_Tot_Q>  (73) 
0

>  <i_epik_Tot_abs_Q>  (73) 
0

>  <s_lp_Force_Field>  (73) 
OPLS3e

>  <r_lp_Energy>  (73) 
96.4227

>  <b_lp_Chiralities_Consistent>  (73) 
1

>  <s_lp_Variant>  (73) 
24:0-1

>  <s_i_glide_gridfile>  (73) 
pfpi4k_grid

>  <i_i_glide_lignum>  (73) 
38

>  <i_i_glide_rotatable_bonds>  (73) 
2

>  <r_i_docking_score>  (73) 
-3.36897

>  <r_i_glide_ligand_efficiency>  (73) 
-0.108677

>  <r_i_glide_ligand_efficiency_sa>  (73) 
-0.341394

>  <r_i_glide_ligand_efficiency_ln>  (73) 
-0.759807

>  <r_i_glide_gscore>  (73) 
-3.36897

>  <r_i_glide_lipo>  (73) 
-0.161425

>  <r_i_glide_hbond>  (73) 
-0.473437

>  <r_i_glide_metal>  (73) 
-0

>  <r_i_glide_rewards>  (73) 
-0.628457

>  <r_i_glide_evdw>  (73) 
-19.8267

>  <r_i_glide_ecoul>  (73) 
-7.38646

>  <r_i_glide_erotb>  (73) 
0

>  <r_i_glide_esite>  (73) 
-0.0063501

>  <r_i_glide_emodel>  (73) 
-32.5667

>  <r_i_glide_energy>  (73) 
-27.2131

>  <r_i_glide_einternal>  (73) 
0.440286

>  <r_i_glide_intrahb_reward>  (73) 
-0

>  <i_i_glide_confnum>  (73) 
1

>  <i_i_glide_posenum>  (73) 
36

>  <r_i_glide_eff_state_penalty>  (73) 
0

>  <ligand_id>  (73) 
24

>  <original_smiles>  (73) 
CC1OC23CC4=CC(=O)CC5=CCC(C12)C(F)(C(O)C1C(C)(O)CCC(=O)C13C)C54C

>  <smiles>  (73) 
[H]OC1([H])C2([H])C(O[H])(C([H])([H])[H])C([H])([H])C([H])([H])C(=O)C2(C([H])([H])[H])C23OC([H])(C([H])([H])[H])C2([H])C2([H])C([H])([H])C([H])=C4C([H])([H])C(=O)C([H])=C(C3([H])[H])C4(C([H])([H])[H])C12F

$$$$
24:0:2
     RDKit          3D

 62 67  0  0  1  0  0  0  0  0999 V2000
    3.1109   -4.0155    6.3159 C   0  0  0  0  0  0  0  0  0  0  0  0
    3.9010   -3.1118    5.3711 C   0  0  2  0  0  0  0  0  0  0  0  0
    3.0524   -2.1845    4.6224 O   0  0  0  0  0  0  0  0  0  0  0  0
    3.3129   -2.8941    3.3697 C   0  0  2  0  0  0  0  0  0  0  0  0
    1.9414   -3.5901    3.1000 C   0  0  0  0  0  0  0  0  0  0  0  0
    1.8143   -5.0802    3.3113 C   0  0  0  0  0  0  0  0  0  0  0  0
    0.7792   -5.5531    4.0579 C   0  0  0  0  0  0  0  0  0  0  0  0
    0.6251   -6.9914    4.3624 C   0  0  0  0  0  0  0  0  0  0  0  0
   -0.3903   -7.4389    4.8934 O   0  0  0  0  0  0  0  0  0  0  0  0
    1.7655   -7.9434    3.9873 C   0  0  0  0  0  0  0  0  0  0  0  0
    2.9983   -7.0829    3.7539 C   0  0  0  0  0  0  0  0  0  0  0  0
    4.0022   -7.0733    4.6492 C   0  0  0  0  0  0  0  0  0  0  0  0
    5.1276   -6.0577    4.6723 C   0  0  0  0  0  0  0  0  0  0  0  0
    4.9964   -4.9482    3.6010 C   0  0  2  0  0  0  0  0  0  0  0  0
    4.5057   -3.5837    4.0579 C   0  0  2  0  0  0  0  0  0  0  0  0
    4.2695   -5.3899    2.3197 C   0  0  2  0  0  0  0  0  0  0  0  0
    5.0125   -6.4500    1.9673 F   0  0  0  0  0  0  0  0  0  0  0  0
    4.5307   -4.3963    1.0939 C   0  0  1  0  0  0  0  0  0  0  0  0
    4.3377   -5.1644   -0.0776 O   0  0  0  0  0  0  0  0  0  0  0  0
    3.8711   -2.9589    0.8470 C   0  0  2  0  0  0  0  0  0  0  0  0
    4.6154   -2.1698   -0.3174 C   0  0  1  0  0  0  0  0  0  0  0  0
    4.7788   -2.8830   -1.6854 C   0  0  0  0  0  0  0  0  0  0  0  0
    3.8236   -1.0529   -0.6854 O   0  0  0  0  0  0  0  0  0  0  0  0
    6.0002   -1.6357    0.1376 C   0  0  0  0  0  0  0  0  0  0  0  0
    6.1765   -1.4767    1.6555 C   0  0  0  0  0  0  0  0  0  0  0  0
    4.8770   -1.1059    2.3595 C   0  0  0  0  0  0  0  0  0  0  0  0
    4.8465   -0.1352    3.1126 O   0  0  0  0  0  0  0  0  0  0  0  0
    3.6350   -2.0109    2.1224 C   0  0  2  0  0  0  0  0  0  0  0  0
    2.4521   -1.0121    1.8887 C   0  0  0  0  0  0  0  0  0  0  0  0
    2.8455   -6.0124    2.6504 C   0  0  2  0  0  0  0  0  0  0  0  0
    2.2078   -6.6089    1.3660 C   0  0  0  0  0  0  0  0  0  0  0  0
    3.7769   -4.5182    7.0160 H   0  0  0  0  0  0  0  0  0  0  0  0
    2.5745   -4.7978    5.7926 H   0  0  0  0  0  0  0  0  0  0  0  0
    2.3917   -3.4527    6.9090 H   0  0  0  0  0  0  0  0  0  0  0  0
    4.6499   -2.5440    5.9302 H   0  0  0  0  0  0  0  0  0  0  0  0
    1.1660   -3.0838    3.6793 H   0  0  0  0  0  0  0  0  0  0  0  0
    1.6137   -3.4671    2.0766 H   0  0  0  0  0  0  0  0  0  0  0  0
    0.0562   -4.8780    4.4959 H   0  0  0  0  0  0  0  0  0  0  0  0
    1.9368   -8.6496    4.7987 H   0  0  0  0  0  0  0  0  0  0  0  0
    1.5086   -8.5326    3.1090 H   0  0  0  0  0  0  0  0  0  0  0  0
    3.9964   -7.7842    5.4643 H   0  0  0  0  0  0  0  0  0  0  0  0
    5.2283   -5.6362    5.6709 H   0  0  0  0  0  0  0  0  0  0  0  0
    6.0439   -6.6248    4.4987 H   0  0  0  0  0  0  0  0  0  0  0  0
    6.0347   -4.7904    3.3007 H   0  0  0  0  0  0  0  0  0  0  0  0
    5.3845   -2.9461    4.0178 H   0  0  0  0  0  0  0  0  0  0  0  0
    5.6067   -4.2312    1.1050 H   0  0  0  0  0  0  0  0  0  0  0  0
    3.4120   -5.2663   -0.2421 H   0  0  0  0  0  0  0  0  0  0  0  0
    2.8871   -3.1762    0.4371 H   0  0  0  0  0  0  0  0  0  0  0  0
    5.5420   -3.6649   -1.6530 H   0  0  0  0  0  0  0  0  0  0  0  0
    5.1059   -2.1811   -2.4558 H   0  0  0  0  0  0  0  0  0  0  0  0
    3.8437   -3.3338   -2.0242 H   0  0  0  0  0  0  0  0  0  0  0  0
    2.9120   -1.3115   -0.7626 H   0  0  0  0  0  0  0  0  0  0  0  0
    6.7854   -2.3196   -0.1912 H   0  0  0  0  0  0  0  0  0  0  0  0
    6.2092   -0.6849   -0.3539 H   0  0  0  0  0  0  0  0  0  0  0  0
    6.5195   -2.4182    2.0796 H   0  0  0  0  0  0  0  0  0  0  0  0
    6.9469   -0.7372    1.8779 H   0  0  0  0  0  0  0  0  0  0  0  0
    1.6437   -1.4312    1.2923 H   0  0  0  0  0  0  0  0  0  0  0  0
    2.7590   -0.1042    1.3673 H   0  0  0  0  0  0  0  0  0  0  0  0
    2.0168   -0.6658    2.8281 H   0  0  0  0  0  0  0  0  0  0  0  0
    1.2463   -7.0906    1.5387 H   0  0  0  0  0  0  0  0  0  0  0  0
    2.8578   -7.3538    0.9071 H   0  0  0  0  0  0  0  0  0  0  0  0
    2.0017   -5.8355    0.6298 H   0  0  0  0  0  0  0  0  0  0  0  0
  1  2  1  0
  1 32  1  0
  1 33  1  0
  1 34  1  0
  2 15  1  0
  2  3  1  0
  2 35  1  1
  4  3  1  1
  4 15  1  0
  4 28  1  0
  4  5  1  0
  5  6  1  0
  5 36  1  0
  5 37  1  0
  6 30  1  0
  6  7  2  0
  7  8  1  0
  7 38  1  0
  8  9  2  0
  8 10  1  0
 10 11  1  0
 10 39  1  0
 10 40  1  0
 11 30  1  0
 11 12  2  0
 12 13  1  0
 12 41  1  0
 13 14  1  0
 13 42  1  0
 13 43  1  0
 14 15  1  0
 14 16  1  0
 14 44  1  6
 15 45  1  6
 16 17  1  6
 16 18  1  0
 16 30  1  0
 18 19  1  0
 18 20  1  0
 18 46  1  1
 19 47  1  0
 20 28  1  0
 20 21  1  0
 20 48  1  6
 21 22  1  0
 21 23  1  6
 21 24  1  0
 22 49  1  0
 22 50  1  0
 22 51  1  0
 23 52  1  0
 24 25  1  0
 24 53  1  0
 24 54  1  0
 25 26  1  0
 25 55  1  0
 25 56  1  0
 26 27  2  0
 26 28  1  0
 28 29  1  6
 29 57  1  0
 29 58  1  0
 29 59  1  0
 30 31  1  6
 31 60  1  0
 31 61  1  0
 31 62  1  0
M  END
>  <i_m_ct_stereo_status>  (74) 
1

>  <s_m_source_file>  (74) 
/var/tmp/pbs.5076255.sched01/tmpuvpulguu/0mmv31ww_.sdf

>  <i_m_source_file_index>  (74) 
38

>  <i_lp_mmshare_version>  (74) 
48012

>  <i_f3d_flags>  (74) 
0

>  <s_epik_input>  (74) 
W0NIM11bQ0BdMShbT0hdKVtDSDJdW0NIMl1DKD1PKVtDQEBdMihbQ0gzXSlbQ0BASF0xW0NASF0oW09IXSlbQ0BAXShGKShbQ0BIXTNbQ0BASF0oW0NAXTI0NSlbQ0BASF0oTzQpW0NIM10pW0NAXTYoW0NIM10pQyhbQ0gyXTUpPVtDSF1DKD1PKVtDSDJdQzY9W0NIXVtDSDJdMw==

>  <s_epik_cmdline>  (74) 
J2VwaWtfcHl0aG9uJywgJy1waHQnLCAnMi4wJywgJy1waCcsICc3LjAnLCAnLXRuJywgJzgnLCAnLW1hJywgJzIwMCcsICctaW1hZScsICc8aW5maWxlLm1hZT4nLCAnLW9tYWUnLCAnPG91dGZpbGUubWFlPic=

>  <r_lp_tautomer_probability>  (74) 
1

>  <r_epik_Ionization_Penalty>  (74) 
1.65168e-06

>  <r_epik_Ionization_Penalty_Charging>  (74) 
0

>  <r_epik_Ionization_Penalty_Neutral>  (74) 
1.65168e-06

>  <r_epik_State_Penalty>  (74) 
-0

>  <r_epik_Charging_Adjusted_Penalty>  (74) 
0

>  <i_epik_Tot_Q>  (74) 
0

>  <i_epik_Tot_abs_Q>  (74) 
0

>  <s_lp_Force_Field>  (74) 
OPLS3e

>  <r_lp_Energy>  (74) 
96.4227

>  <b_lp_Chiralities_Consistent>  (74) 
1

>  <s_lp_Variant>  (74) 
24:0-1

>  <s_i_glide_gridfile>  (74) 
pfpi4k_grid

>  <i_i_glide_lignum>  (74) 
38

>  <i_i_glide_rotatable_bonds>  (74) 
2

>  <r_i_docking_score>  (74) 
-2.54868

>  <r_i_glide_ligand_efficiency>  (74) 
-0.0822155

>  <r_i_glide_ligand_efficiency_sa>  (74) 
-0.25827

>  <r_i_glide_ligand_efficiency_ln>  (74) 
-0.574806

>  <r_i_glide_gscore>  (74) 
-2.54868

>  <r_i_glide_lipo>  (74) 
-0.245981

>  <r_i_glide_hbond>  (74) 
-0.0899046

>  <r_i_glide_metal>  (74) 
-0

>  <r_i_glide_rewards>  (74) 
-0.642636

>  <r_i_glide_evdw>  (74) 
-21.185

>  <r_i_glide_ecoul>  (74) 
-3.28776

>  <r_i_glide_erotb>  (74) 
0

>  <r_i_glide_esite>  (74) 
-0.0177467

>  <r_i_glide_emodel>  (74) 
-28.5156

>  <r_i_glide_energy>  (74) 
-24.4727

>  <r_i_glide_einternal>  (74) 
0.261707

>  <r_i_glide_intrahb_reward>  (74) 
-0

>  <i_i_glide_confnum>  (74) 
1

>  <i_i_glide_posenum>  (74) 
16

>  <r_i_glide_eff_state_penalty>  (74) 
0

>  <ligand_id>  (74) 
24

>  <original_smiles>  (74) 
CC1OC23CC4=CC(=O)CC5=CCC(C12)C(F)(C(O)C1C(C)(O)CCC(=O)C13C)C54C

>  <smiles>  (74) 
[H]OC1([H])C2([H])C(O[H])(C([H])([H])[H])C([H])([H])C([H])([H])C(=O)C2(C([H])([H])[H])C23OC([H])(C([H])([H])[H])C2([H])C2([H])C([H])([H])C([H])=C4C([H])([H])C(=O)C([H])=C(C3([H])[H])C4(C([H])([H])[H])C12F

$$$$
25:0:0
     RDKit          3D

 78 83  0  0  1  0  0  0  0  0999 V2000
   -0.9353   -7.8355    4.8068 C   0  0  0  0  0  0  0  0  0  0  0  0
   -0.1612   -7.7968    3.7187 C   0  0  0  0  0  0  0  0  0  0  0  0
   -0.6860   -7.4362    2.3620 C   0  0  0  0  0  0  0  0  0  0  0  0
    0.5636   -6.9810    1.6310 C   0  0  0  0  0  0  0  0  0  0  0  0
    1.6533   -7.9137    2.2098 C   0  0  1  0  0  0  0  0  0  0  0  0
    3.0926   -7.5769    1.8459 C   0  0  0  0  0  0  0  0  0  0  0  0
    4.1904   -7.9814    2.4673 C   0  0  0  0  0  0  0  0  0  0  0  0
    5.2499   -8.0177    1.3865 C   0  0  1  0  0  0  0  0  0  0  0  0
    5.3900   -9.3635    0.9722 O   0  0  0  0  0  0  0  0  0  0  0  0
    4.6943   -7.0983    0.2752 C   0  0  0  0  0  0  0  0  0  0  0  0
    3.4354   -6.4969    0.8887 C   0  0  2  0  0  0  0  0  0  0  0  0
    3.6770   -5.2032    1.7571 C   0  0  2  0  0  0  0  0  0  0  0  0
    3.8145   -3.8270    0.9457 C   0  0  1  0  0  0  0  0  0  0  0  0
    3.2933   -4.0436   -0.4944 C   0  0  0  0  0  0  0  0  0  0  0  0
    2.8596   -2.7887    1.5944 C   0  0  0  0  0  0  0  0  0  0  0  0
    2.9569   -1.3775    1.0137 C   0  0  0  0  0  0  0  0  0  0  0  0
    4.3485   -0.7794    1.1224 C   0  0  1  0  0  0  0  0  0  0  0  0
    4.6409   -0.3936    2.5838 C   0  0  0  0  0  0  0  0  0  0  0  0
    5.3915   -1.7184    0.4400 C   0  0  1  0  0  0  0  0  0  0  0  0
    5.3927   -1.4846   -1.0940 C   0  0  0  0  0  0  0  0  0  0  0  0
    6.6816   -1.2160    0.7466 O   0  0  0  0  0  0  0  0  0  0  0  0
    5.2766   -3.2601    0.8044 C   0  0  1  0  0  0  0  0  0  0  0  0
    6.1666   -3.6016    1.9990 C   0  0  0  0  0  0  0  0  0  0  0  0
    6.0733   -5.0370    2.5361 C   0  0  0  0  0  0  0  0  0  0  0  0
    4.6490   -5.4443    3.0051 C   0  0  1  0  0  0  0  0  0  0  0  0
    4.3279   -4.4777    4.1882 C   0  0  0  0  0  0  0  0  0  0  0  0
    4.5926   -6.9746    3.5698 C   0  0  2  0  0  0  0  0  0  0  0  0
    5.9497   -7.4059    4.2263 C   0  0  0  0  0  0  0  0  0  0  0  0
    3.5921   -7.1988    4.7669 C   0  0  0  0  0  0  0  0  0  0  0  0
    2.0641   -7.0084    4.5559 C   0  0  0  0  0  0  0  0  0  0  0  0
    1.3293   -8.0761    3.7113 C   0  0  1  0  0  0  0  0  0  0  0  0
    1.5952   -9.5132    4.2035 C   0  0  0  0  0  0  0  0  0  0  0  0
   -0.5155   -8.1023    5.7657 H   0  0  0  0  0  0  0  0  0  0  0  0
   -1.9968   -7.6191    4.7490 H   0  0  0  0  0  0  0  0  0  0  0  0
   -1.0857   -8.3447    1.9061 H   0  0  0  0  0  0  0  0  0  0  0  0
   -1.4736   -6.6874    2.4121 H   0  0  0  0  0  0  0  0  0  0  0  0
    0.4580   -7.0720    0.5464 H   0  0  0  0  0  0  0  0  0  0  0  0
    0.7637   -5.9433    1.8875 H   0  0  0  0  0  0  0  0  0  0  0  0
    1.4703   -8.8832    1.7385 H   0  0  0  0  0  0  0  0  0  0  0  0
    6.2633   -7.7607    1.6606 H   0  0  0  0  0  0  0  0  0  0  0  0
    4.5395   -9.7831    0.8829 H   0  0  0  0  0  0  0  0  0  0  0  0
    5.4040   -6.3408   -0.0502 H   0  0  0  0  0  0  0  0  0  0  0  0
    4.4486   -7.6867   -0.6096 H   0  0  0  0  0  0  0  0  0  0  0  0
    2.6563   -6.4118    0.1426 H   0  0  0  0  0  0  0  0  0  0  0  0
    2.7176   -5.1001    2.2409 H   0  0  0  0  0  0  0  0  0  0  0  0
    3.2535   -3.1484   -1.1001 H   0  0  0  0  0  0  0  0  0  0  0  0
    2.2726   -4.4317   -0.5202 H   0  0  0  0  0  0  0  0  0  0  0  0
    3.9371   -4.7267   -1.0501 H   0  0  0  0  0  0  0  0  0  0  0  0
    1.8322   -3.1332    1.4727 H   0  0  0  0  0  0  0  0  0  0  0  0
    2.9923   -2.7236    2.6643 H   0  0  0  0  0  0  0  0  0  0  0  0
    2.6523   -1.3911   -0.0298 H   0  0  0  0  0  0  0  0  0  0  0  0
    2.2188   -0.7341    1.4924 H   0  0  0  0  0  0  0  0  0  0  0  0
    4.3267    0.1624    0.5779 H   0  0  0  0  0  0  0  0  0  0  0  0
    4.6921   -1.2578    3.2440 H   0  0  0  0  0  0  0  0  0  0  0  0
    3.8531    0.2529    2.9756 H   0  0  0  0  0  0  0  0  0  0  0  0
    5.5765    0.1499    2.6894 H   0  0  0  0  0  0  0  0  0  0  0  0
    4.3969   -1.5110   -1.5421 H   0  0  0  0  0  0  0  0  0  0  0  0
    6.0155   -2.2208   -1.6072 H   0  0  0  0  0  0  0  0  0  0  0  0
    5.7806   -0.4941   -1.3515 H   0  0  0  0  0  0  0  0  0  0  0  0
    6.6141   -0.2830    0.8815 H   0  0  0  0  0  0  0  0  0  0  0  0
    5.7617   -3.8050   -0.0014 H   0  0  0  0  0  0  0  0  0  0  0  0
    7.2079   -3.5046    1.6580 H   0  0  0  0  0  0  0  0  0  0  0  0
    6.0986   -2.8745    2.7974 H   0  0  0  0  0  0  0  0  0  0  0  0
    6.4560   -5.6860    1.7489 H   0  0  0  0  0  0  0  0  0  0  0  0
    6.7901   -5.1264    3.3506 H   0  0  0  0  0  0  0  0  0  0  0  0
    4.9790   -4.6664    5.0429 H   0  0  0  0  0  0  0  0  0  0  0  0
    3.2997   -4.5371    4.5207 H   0  0  0  0  0  0  0  0  0  0  0  0
    4.4789   -3.4312    3.9512 H   0  0  0  0  0  0  0  0  0  0  0  0
    6.1964   -6.7812    5.0854 H   0  0  0  0  0  0  0  0  0  0  0  0
    6.8181   -7.3576    3.5701 H   0  0  0  0  0  0  0  0  0  0  0  0
    5.9183   -8.4456    4.5787 H   0  0  0  0  0  0  0  0  0  0  0  0
    3.7354   -8.2099    5.1626 H   0  0  0  0  0  0  0  0  0  0  0  0
    3.8798   -6.5719    5.6066 H   0  0  0  0  0  0  0  0  0  0  0  0
    1.6211   -7.0112    5.5514 H   0  0  0  0  0  0  0  0  0  0  0  0
    1.8369   -6.0267    4.1554 H   0  0  0  0  0  0  0  0  0  0  0  0
    2.6162   -9.8283    3.9983 H   0  0  0  0  0  0  0  0  0  0  0  0
    0.9380  -10.2313    3.7093 H   0  0  0  0  0  0  0  0  0  0  0  0
    1.4287   -9.6121    5.2729 H   0  0  0  0  0  0  0  0  0  0  0  0
  1  2  2  0
  1 33  1  0
  1 34  1  0
  2 31  1  0
  2  3  1  0
  3  4  1  0
  3 35  1  0
  3 36  1  0
  4  5  1  0
  4 37  1  0
  4 38  1  0
  5 31  1  0
  5  6  1  0
  5 39  1  6
  6 11  1  0
  6  7  2  0
  7 27  1  0
  7  8  1  0
  8  9  1  0
  8 10  1  0
  8 40  1  1
  9 41  1  0
 10 11  1  0
 10 42  1  0
 10 43  1  0
 11 12  1  0
 11 44  1  6
 12 25  1  0
 12 13  1  0
 12 45  1  1
 13 22  1  0
 13 14  1  6
 13 15  1  0
 14 46  1  0
 14 47  1  0
 14 48  1  0
 15 16  1  0
 15 49  1  0
 15 50  1  0
 16 17  1  0
 16 51  1  0
 16 52  1  0
 17 18  1  0
 17 19  1  0
 17 53  1  6
 18 54  1  0
 18 55  1  0
 18 56  1  0
 19 20  1  0
 19 21  1  1
 19 22  1  0
 20 57  1  0
 20 58  1  0
 20 59  1  0
 21 60  1  0
 22 23  1  0
 22 61  1  6
 23 24  1  0
 23 62  1  0
 23 63  1  0
 24 25  1  0
 24 64  1  0
 24 65  1  0
 25 26  1  1
 25 27  1  0
 26 66  1  0
 26 67  1  0
 26 68  1  0
 27 28  1  1
 27 29  1  0
 28 69  1  0
 28 70  1  0
 28 71  1  0
 29 30  1  0
 29 72  1  0
 29 73  1  0
 30 31  1  0
 30 74  1  0
 30 75  1  0
 31 32  1  1
 32 76  1  0
 32 77  1  0
 32 78  1  0
M  END
>  <i_m_ct_stereo_status>  (75) 
1

>  <s_m_source_file>  (75) 
/var/tmp/pbs.5076255.sched01/tmpuvpulguu/0mmv31ww_.sdf

>  <i_m_source_file_index>  (75) 
39

>  <i_lp_mmshare_version>  (75) 
48012

>  <i_f3d_flags>  (75) 
0

>  <s_epik_input>  (75) 
W0NIMl09QzFbQ0gyXVtDSDJdW0NAQEhdMltDQEBdMShbQ0gzXSlbQ0gyXVtDSDJdW0NAQF0oW0NIM10pKEMoW0NAQEhdKFtPSF0pW0NIMl0zKT1DMltDQEhdM1tDQEBIXTRbQ0BAXTU2W0NIM10pW0NAQF00KFtDSDNdKVtDSDJdW0NIMl1bQ0BASF02W0NAXShbQ0gzXSkoW09IXSlbQ0BIXShbQ0gzXSlbQ0gyXVtDSDJdNQ==

>  <s_epik_cmdline>  (75) 
J2VwaWtfcHl0aG9uJywgJy1waHQnLCAnMi4wJywgJy1waCcsICc3LjAnLCAnLXRuJywgJzgnLCAnLW1hJywgJzIwMCcsICctaW1hZScsICc8aW5maWxlLm1hZT4nLCAnLW9tYWUnLCAnPG91dGZpbGUubWFlPic=

>  <r_lp_tautomer_probability>  (75) 
1

>  <r_epik_Ionization_Penalty>  (75) 
3.31514e-06

>  <r_epik_Ionization_Penalty_Charging>  (75) 
0

>  <r_epik_Ionization_Penalty_Neutral>  (75) 
3.31514e-06

>  <r_epik_State_Penalty>  (75) 
-0

>  <r_epik_Charging_Adjusted_Penalty>  (75) 
0

>  <i_epik_Tot_Q>  (75) 
0

>  <i_epik_Tot_abs_Q>  (75) 
0

>  <s_lp_Force_Field>  (75) 
OPLS3e

>  <r_lp_Energy>  (75) 
145.395

>  <b_lp_Chiralities_Consistent>  (75) 
1

>  <s_lp_Variant>  (75) 
25:0-1

>  <s_i_glide_gridfile>  (75) 
pfpi4k_grid

>  <i_i_glide_lignum>  (75) 
39

>  <i_i_glide_rotatable_bonds>  (75) 
2

>  <r_i_docking_score>  (75) 
-2.98734

>  <r_i_glide_ligand_efficiency>  (75) 
-0.0933544

>  <r_i_glide_ligand_efficiency_sa>  (75) 
-0.296382

>  <r_i_glide_ligand_efficiency_ln>  (75) 
-0.668947

>  <r_i_glide_gscore>  (75) 
-2.98734

>  <r_i_glide_lipo>  (75) 
-0.59218

>  <r_i_glide_hbond>  (75) 
-0.11792

>  <r_i_glide_metal>  (75) 
-0

>  <r_i_glide_rewards>  (75) 
-0.418057

>  <r_i_glide_evdw>  (75) 
-28.7822

>  <r_i_glide_ecoul>  (75) 
-2.80051

>  <r_i_glide_erotb>  (75) 
0

>  <r_i_glide_esite>  (75) 
0

>  <r_i_glide_emodel>  (75) 
-36.6768

>  <r_i_glide_energy>  (75) 
-31.5827

>  <r_i_glide_einternal>  (75) 
0.677184

>  <r_i_glide_intrahb_reward>  (75) 
-0

>  <i_i_glide_confnum>  (75) 
2

>  <i_i_glide_posenum>  (75) 
34

>  <r_i_glide_eff_state_penalty>  (75) 
0

>  <ligand_id>  (75) 
25

>  <original_smiles>  (75) 
C=C1CCC2C3=C4C(O)CC3C3C5(C)CCC(C)C(C)(O)C5CCC3(C)C4(C)CCC12C

>  <smiles>  (75) 
[H]OC1([H])C2=C3C([H])(C1([H])[H])C1([H])C4(C([H])([H])[H])C([H])([H])C([H])([H])C([H])(C([H])([H])[H])C(O[H])(C([H])([H])[H])C4([H])C([H])([H])C([H])([H])C1(C([H])([H])[H])C2(C([H])([H])[H])C([H])([H])C([H])([H])C1(C([H])([H])[H])C(=C([H])[H])C([H])([H])C([H])([H])C31[H]

$$$$
25:0:1
     RDKit          3D

 78 83  0  0  1  0  0  0  0  0999 V2000
    4.2412   -1.7263   -0.5623 C   0  0  0  0  0  0  0  0  0  0  0  0
    4.3873   -2.2034    0.6719 C   0  0  0  0  0  0  0  0  0  0  0  0
    3.7157   -1.6017    1.8866 C   0  0  0  0  0  0  0  0  0  0  0  0
    3.7084   -2.7408    2.8943 C   0  0  0  0  0  0  0  0  0  0  0  0
    5.0368   -3.4756    2.6043 C   0  0  1  0  0  0  0  0  0  0  0  0
    5.2474   -4.8049    3.3070 C   0  0  0  0  0  0  0  0  0  0  0  0
    6.1087   -5.7835    2.9789 C   0  0  0  0  0  0  0  0  0  0  0  0
    6.4445   -6.4709    4.2939 C   0  0  1  0  0  0  0  0  0  0  0  0
    7.6451   -5.9349    4.8047 O   0  0  0  0  0  0  0  0  0  0  0  0
    5.2735   -6.1172    5.2408 C   0  0  0  0  0  0  0  0  0  0  0  0
    4.3033   -5.3524    4.3264 C   0  0  2  0  0  0  0  0  0  0  0  0
    3.2868   -6.2589    3.5160 C   0  0  2  0  0  0  0  0  0  0  0  0
    1.9858   -6.7456    4.3134 C   0  0  1  0  0  0  0  0  0  0  0  0
    1.8501   -5.8804    5.5979 C   0  0  0  0  0  0  0  0  0  0  0  0
    0.7253   -6.4151    3.4558 C   0  0  0  0  0  0  0  0  0  0  0  0
   -0.6027   -6.9252    4.0366 C   0  0  0  0  0  0  0  0  0  0  0  0
   -0.5983   -8.4397    4.2341 C   0  0  1  0  0  0  0  0  0  0  0  0
   -0.7009   -9.1643    2.8768 C   0  0  0  0  0  0  0  0  0  0  0  0
    0.5842   -8.8819    5.1470 C   0  0  1  0  0  0  0  0  0  0  0  0
    0.2245   -8.6563    6.6358 C   0  0  0  0  0  0  0  0  0  0  0  0
    0.6261  -10.2985    5.1121 O   0  0  0  0  0  0  0  0  0  0  0  0
    2.0029   -8.2653    4.7658 C   0  0  1  0  0  0  0  0  0  0  0  0
    2.7864   -9.2039    3.8192 C   0  0  0  0  0  0  0  0  0  0  0  0
    4.1181   -8.6457    3.3018 C   0  0  0  0  0  0  0  0  0  0  0  0
    4.0012   -7.2973    2.5327 C   0  0  1  0  0  0  0  0  0  0  0  0
    3.1125   -7.6348    1.3000 C   0  0  0  0  0  0  0  0  0  0  0  0
    5.4461   -6.7557    1.9852 C   0  0  2  0  0  0  0  0  0  0  0  0
    6.4234   -7.9406    1.6743 C   0  0  0  0  0  0  0  0  0  0  0  0
    5.3858   -6.0234    0.5894 C   0  0  0  0  0  0  0  0  0  0  0  0
    4.6059   -4.6900    0.4168 C   0  0  0  0  0  0  0  0  0  0  0  0
    5.2170   -3.4283    1.0681 C   0  0  1  0  0  0  0  0  0  0  0  0
    6.6912   -3.2093    0.6732 C   0  0  0  0  0  0  0  0  0  0  0  0
    4.7206   -2.1902   -1.4157 H   0  0  0  0  0  0  0  0  0  0  0  0
    3.6162   -0.8603   -0.7598 H   0  0  0  0  0  0  0  0  0  0  0  0
    4.3431   -0.7851    2.2486 H   0  0  0  0  0  0  0  0  0  0  0  0
    2.7227   -1.2087    1.6599 H   0  0  0  0  0  0  0  0  0  0  0  0
    3.6362   -2.3789    3.9227 H   0  0  0  0  0  0  0  0  0  0  0  0
    2.8477   -3.3781    2.6910 H   0  0  0  0  0  0  0  0  0  0  0  0
    5.8043   -2.8236    3.0244 H   0  0  0  0  0  0  0  0  0  0  0  0
    6.6269   -7.5418    4.2560 H   0  0  0  0  0  0  0  0  0  0  0  0
    8.3641   -6.1885    4.2307 H   0  0  0  0  0  0  0  0  0  0  0  0
    4.8228   -6.9818    5.7205 H   0  0  0  0  0  0  0  0  0  0  0  0
    5.6208   -5.4569    6.0377 H   0  0  0  0  0  0  0  0  0  0  0  0
    3.8666   -4.5106    4.8567 H   0  0  0  0  0  0  0  0  0  0  0  0
    2.8805   -5.5396    2.8153 H   0  0  0  0  0  0  0  0  0  0  0  0
    0.9526   -6.0777    6.1704 H   0  0  0  0  0  0  0  0  0  0  0  0
    1.8045   -4.8133    5.3762 H   0  0  0  0  0  0  0  0  0  0  0  0
    2.6749   -6.0512    6.2931 H   0  0  0  0  0  0  0  0  0  0  0  0
    0.6481   -5.3345    3.3291 H   0  0  0  0  0  0  0  0  0  0  0  0
    0.8189   -6.8018    2.4493 H   0  0  0  0  0  0  0  0  0  0  0  0
   -0.8274   -6.4260    4.9756 H   0  0  0  0  0  0  0  0  0  0  0  0
   -1.4292   -6.6588    3.3758 H   0  0  0  0  0  0  0  0  0  0  0  0
   -1.5296   -8.6840    4.7480 H   0  0  0  0  0  0  0  0  0  0  0  0
    0.1835   -9.0361    2.2574 H   0  0  0  0  0  0  0  0  0  0  0  0
   -1.5536   -8.8087    2.2959 H   0  0  0  0  0  0  0  0  0  0  0  0
   -0.8502  -10.2330    3.0072 H   0  0  0  0  0  0  0  0  0  0  0  0
   -0.1634   -7.6616    6.8425 H   0  0  0  0  0  0  0  0  0  0  0  0
    1.0863   -8.8190    7.2863 H   0  0  0  0  0  0  0  0  0  0  0  0
   -0.5563   -9.3417    6.9742 H   0  0  0  0  0  0  0  0  0  0  0  0
   -0.2625  -10.6350    5.2625 H   0  0  0  0  0  0  0  0  0  0  0  0
    2.6046   -8.3063    5.6768 H   0  0  0  0  0  0  0  0  0  0  0  0
    3.0501  -10.0950    4.3875 H   0  0  0  0  0  0  0  0  0  0  0  0
    2.1813   -9.6030    3.0094 H   0  0  0  0  0  0  0  0  0  0  0  0
    4.7678   -8.5570    4.1661 H   0  0  0  0  0  0  0  0  0  0  0  0
    4.5642   -9.4228    2.6783 H   0  0  0  0  0  0  0  0  0  0  0  0
    3.6235   -8.3254    0.6279 H   0  0  0  0  0  0  0  0  0  0  0  0
    2.8092   -6.7633    0.7302 H   0  0  0  0  0  0  0  0  0  0  0  0
    2.1823   -8.1305    1.5448 H   0  0  0  0  0  0  0  0  0  0  0  0
    6.0305   -8.5927    0.8897 H   0  0  0  0  0  0  0  0  0  0  0  0
    6.6392   -8.5981    2.5122 H   0  0  0  0  0  0  0  0  0  0  0  0
    7.3974   -7.5812    1.3293 H   0  0  0  0  0  0  0  0  0  0  0  0
    6.4051   -5.8407    0.2409 H   0  0  0  0  0  0  0  0  0  0  0  0
    4.9996   -6.7026   -0.1721 H   0  0  0  0  0  0  0  0  0  0  0  0
    4.5333   -4.5105   -0.6571 H   0  0  0  0  0  0  0  0  0  0  0  0
    3.5729   -4.7891    0.7443 H   0  0  0  0  0  0  0  0  0  0  0  0
    7.3424   -3.9539    1.1275 H   0  0  0  0  0  0  0  0  0  0  0  0
    7.0460   -2.2357    1.0086 H   0  0  0  0  0  0  0  0  0  0  0  0
    6.8305   -3.2559   -0.4058 H   0  0  0  0  0  0  0  0  0  0  0  0
  1  2  2  0
  1 33  1  0
  1 34  1  0
  2 31  1  0
  2  3  1  0
  3  4  1  0
  3 35  1  0
  3 36  1  0
  4  5  1  0
  4 37  1  0
  4 38  1  0
  5 31  1  0
  5  6  1  0
  5 39  1  1
  6 11  1  0
  6  7  2  0
  7 27  1  0
  7  8  1  0
  8  9  1  0
  8 10  1  0
  8 40  1  6
  9 41  1  0
 10 11  1  0
 10 42  1  0
 10 43  1  0
 11 12  1  0
 11 44  1  1
 12 25  1  0
 12 13  1  0
 12 45  1  6
 13 22  1  0
 13 14  1  1
 13 15  1  0
 14 46  1  0
 14 47  1  0
 14 48  1  0
 15 16  1  0
 15 49  1  0
 15 50  1  0
 16 17  1  0
 16 51  1  0
 16 52  1  0
 17 18  1  0
 17 19  1  0
 17 53  1  1
 18 54  1  0
 18 55  1  0
 18 56  1  0
 19 20  1  0
 19 21  1  1
 19 22  1  0
 20 57  1  0
 20 58  1  0
 20 59  1  0
 21 60  1  0
 22 23  1  0
 22 61  1  1
 23 24  1  0
 23 62  1  0
 23 63  1  0
 24 25  1  0
 24 64  1  0
 24 65  1  0
 25 26  1  6
 25 27  1  0
 26 66  1  0
 26 67  1  0
 26 68  1  0
 27 28  1  6
 27 29  1  0
 28 69  1  0
 28 70  1  0
 28 71  1  0
 29 30  1  0
 29 72  1  0
 29 73  1  0
 30 31  1  0
 30 74  1  0
 30 75  1  0
 31 32  1  1
 32 76  1  0
 32 77  1  0
 32 78  1  0
M  END
>  <i_m_ct_stereo_status>  (76) 
1

>  <s_m_source_file>  (76) 
/var/tmp/pbs.5076255.sched01/tmpuvpulguu/0mmv31ww_.sdf

>  <i_m_source_file_index>  (76) 
39

>  <i_lp_mmshare_version>  (76) 
48012

>  <i_f3d_flags>  (76) 
0

>  <s_epik_input>  (76) 
W0NIMl09QzFbQ0gyXVtDSDJdW0NAQEhdMltDQEBdMShbQ0gzXSlbQ0gyXVtDSDJdW0NAQF0oW0NIM10pKEMoW0NAQEhdKFtPSF0pW0NIMl0zKT1DMltDQEhdM1tDQEBIXTRbQ0BAXTU2W0NIM10pW0NAQF00KFtDSDNdKVtDSDJdW0NIMl1bQ0BASF02W0NAXShbQ0gzXSkoW09IXSlbQ0BIXShbQ0gzXSlbQ0gyXVtDSDJdNQ==

>  <s_epik_cmdline>  (76) 
J2VwaWtfcHl0aG9uJywgJy1waHQnLCAnMi4wJywgJy1waCcsICc3LjAnLCAnLXRuJywgJzgnLCAnLW1hJywgJzIwMCcsICctaW1hZScsICc8aW5maWxlLm1hZT4nLCAnLW9tYWUnLCAnPG91dGZpbGUubWFlPic=

>  <r_lp_tautomer_probability>  (76) 
1

>  <r_epik_Ionization_Penalty>  (76) 
3.31514e-06

>  <r_epik_Ionization_Penalty_Charging>  (76) 
0

>  <r_epik_Ionization_Penalty_Neutral>  (76) 
3.31514e-06

>  <r_epik_State_Penalty>  (76) 
-0

>  <r_epik_Charging_Adjusted_Penalty>  (76) 
0

>  <i_epik_Tot_Q>  (76) 
0

>  <i_epik_Tot_abs_Q>  (76) 
0

>  <s_lp_Force_Field>  (76) 
OPLS3e

>  <r_lp_Energy>  (76) 
145.395

>  <b_lp_Chiralities_Consistent>  (76) 
1

>  <s_lp_Variant>  (76) 
25:0-1

>  <s_i_glide_gridfile>  (76) 
pfpi4k_grid

>  <i_i_glide_lignum>  (76) 
39

>  <i_i_glide_rotatable_bonds>  (76) 
2

>  <r_i_docking_score>  (76) 
-2.88113

>  <r_i_glide_ligand_efficiency>  (76) 
-0.0900354

>  <r_i_glide_ligand_efficiency_sa>  (76) 
-0.285845

>  <r_i_glide_ligand_efficiency_ln>  (76) 
-0.645164

>  <r_i_glide_gscore>  (76) 
-2.88113

>  <r_i_glide_lipo>  (76) 
-0.531573

>  <r_i_glide_hbond>  (76) 
-0.16

>  <r_i_glide_metal>  (76) 
-0

>  <r_i_glide_rewards>  (76) 
-0.418057

>  <r_i_glide_evdw>  (76) 
-30.3431

>  <r_i_glide_ecoul>  (76) 
-1.69566

>  <r_i_glide_erotb>  (76) 
0

>  <r_i_glide_esite>  (76) 
0

>  <r_i_glide_emodel>  (76) 
-37.411

>  <r_i_glide_energy>  (76) 
-32.0387

>  <r_i_glide_einternal>  (76) 
0.311672

>  <r_i_glide_intrahb_reward>  (76) 
-0

>  <i_i_glide_confnum>  (76) 
1

>  <i_i_glide_posenum>  (76) 
1

>  <r_i_glide_eff_state_penalty>  (76) 
0

>  <ligand_id>  (76) 
25

>  <original_smiles>  (76) 
C=C1CCC2C3=C4C(O)CC3C3C5(C)CCC(C)C(C)(O)C5CCC3(C)C4(C)CCC12C

>  <smiles>  (76) 
[H]OC1([H])C2=C3C([H])(C1([H])[H])C1([H])C4(C([H])([H])[H])C([H])([H])C([H])([H])C([H])(C([H])([H])[H])C(O[H])(C([H])([H])[H])C4([H])C([H])([H])C([H])([H])C1(C([H])([H])[H])C2(C([H])([H])[H])C([H])([H])C([H])([H])C1(C([H])([H])[H])C(=C([H])[H])C([H])([H])C([H])([H])C31[H]

$$$$
25:0:2
     RDKit          3D

 78 83  0  0  1  0  0  0  0  0999 V2000
   -0.5925   -8.8718    2.8807 C   0  0  0  0  0  0  0  0  0  0  0  0
    0.7196   -8.6558    3.0779 C   0  0  0  0  0  0  0  0  0  0  0  0
    1.8092   -9.3726    2.3173 C   0  0  0  0  0  0  0  0  0  0  0  0
    3.0099   -8.4500    2.4480 C   0  0  0  0  0  0  0  0  0  0  0  0
    2.8438   -7.8799    3.8669 C   0  0  1  0  0  0  0  0  0  0  0  0
    3.7862   -6.7452    4.2742 C   0  0  0  0  0  0  0  0  0  0  0  0
    3.6352   -5.8416    5.2362 C   0  0  0  0  0  0  0  0  0  0  0  0
    5.0557   -5.4812    5.6647 C   0  0  1  0  0  0  0  0  0  0  0  0
    5.4334   -6.2663    6.7796 O   0  0  0  0  0  0  0  0  0  0  0  0
    5.9220   -5.8355    4.4433 C   0  0  0  0  0  0  0  0  0  0  0  0
    4.8891   -6.2660    3.3883 C   0  0  2  0  0  0  0  0  0  0  0  0
    4.2762   -5.0850    2.5204 C   0  0  2  0  0  0  0  0  0  0  0  0
    5.1698   -4.5769    1.2914 C   0  0  1  0  0  0  0  0  0  0  0  0
    6.2766   -5.6354    1.0156 C   0  0  0  0  0  0  0  0  0  0  0  0
    4.2784   -4.5526    0.0126 C   0  0  0  0  0  0  0  0  0  0  0  0
    4.9554   -3.9717   -1.2370 C   0  0  0  0  0  0  0  0  0  0  0  0
    5.4353   -2.5317   -1.0225 C   0  0  1  0  0  0  0  0  0  0  0  0
    4.2405   -1.5537   -0.9979 C   0  0  0  0  0  0  0  0  0  0  0  0
    6.4080   -2.4486    0.1967 C   0  0  1  0  0  0  0  0  0  0  0  0
    7.8331   -2.9055   -0.2119 C   0  0  0  0  0  0  0  0  0  0  0  0
    6.6349   -1.0661    0.4447 O   0  0  0  0  0  0  0  0  0  0  0  0
    5.8824   -3.1775    1.5098 C   0  0  1  0  0  0  0  0  0  0  0  0
    5.1327   -2.2021    2.4496 C   0  0  0  0  0  0  0  0  0  0  0  0
    4.5076   -2.8470    3.6901 C   0  0  0  0  0  0  0  0  0  0  0  0
    3.4911   -3.9906    3.3921 C   0  0  1  0  0  0  0  0  0  0  0  0
    2.3563   -3.3039    2.5737 C   0  0  0  0  0  0  0  0  0  0  0  0
    2.8291   -4.6162    4.7512 C   0  0  2  0  0  0  0  0  0  0  0  0
    2.7366   -3.5559    5.8951 C   0  0  0  0  0  0  0  0  0  0  0  0
    1.3260   -5.0684    4.6093 C   0  0  0  0  0  0  0  0  0  0  0  0
    0.9260   -6.2216    3.6518 C   0  0  0  0  0  0  0  0  0  0  0  0
    1.3278   -7.6582    4.0633 C   0  0  1  0  0  0  0  0  0  0  0  0
    0.8783   -8.0087    5.4983 C   0  0  0  0  0  0  0  0  0  0  0  0
   -1.3427   -8.3402    3.4466 H   0  0  0  0  0  0  0  0  0  0  0  0
   -0.9265   -9.5958    2.1522 H   0  0  0  0  0  0  0  0  0  0  0  0
    2.0113  -10.3231    2.8159 H   0  0  0  0  0  0  0  0  0  0  0  0
    1.5407   -9.5759    1.2804 H   0  0  0  0  0  0  0  0  0  0  0  0
    3.9517   -8.9820    2.3066 H   0  0  0  0  0  0  0  0  0  0  0  0
    2.9394   -7.6719    1.6896 H   0  0  0  0  0  0  0  0  0  0  0  0
    3.1321   -8.6964    4.5305 H   0  0  0  0  0  0  0  0  0  0  0  0
    5.2035   -4.4640    5.9930 H   0  0  0  0  0  0  0  0  0  0  0  0
    5.3032   -7.1782    6.5669 H   0  0  0  0  0  0  0  0  0  0  0  0
    6.5628   -5.0254    4.1112 H   0  0  0  0  0  0  0  0  0  0  0  0
    6.5829   -6.6734    4.6704 H   0  0  0  0  0  0  0  0  0  0  0  0
    5.2655   -7.1138    2.8205 H   0  0  0  0  0  0  0  0  0  0  0  0
    3.4611   -5.5998    2.0263 H   0  0  0  0  0  0  0  0  0  0  0  0
    6.8794   -5.4206    0.1452 H   0  0  0  0  0  0  0  0  0  0  0  0
    5.8578   -6.6230    0.8222 H   0  0  0  0  0  0  0  0  0  0  0  0
    6.9800   -5.7160    1.8451 H   0  0  0  0  0  0  0  0  0  0  0  0
    3.9549   -5.5674   -0.2240 H   0  0  0  0  0  0  0  0  0  0  0  0
    3.3552   -4.0079    0.1733 H   0  0  0  0  0  0  0  0  0  0  0  0
    5.7904   -4.5986   -1.5354 H   0  0  0  0  0  0  0  0  0  0  0  0
    4.2632   -4.0152   -2.0791 H   0  0  0  0  0  0  0  0  0  0  0  0
    6.0029   -2.2584   -1.9128 H   0  0  0  0  0  0  0  0  0  0  0  0
    3.5988   -1.7017   -0.1332 H   0  0  0  0  0  0  0  0  0  0  0  0
    3.6138   -1.6812   -1.8803 H   0  0  0  0  0  0  0  0  0  0  0  0
    4.5688   -0.5149   -0.9936 H   0  0  0  0  0  0  0  0  0  0  0  0
    7.8482   -3.8493   -0.7509 H   0  0  0  0  0  0  0  0  0  0  0  0
    8.4910   -3.0005    0.6529 H   0  0  0  0  0  0  0  0  0  0  0  0
    8.3065   -2.1957   -0.8914 H   0  0  0  0  0  0  0  0  0  0  0  0
    7.1468   -0.9685    1.2332 H   0  0  0  0  0  0  0  0  0  0  0  0
    6.7763   -3.4099    2.0809 H   0  0  0  0  0  0  0  0  0  0  0  0
    5.8518   -1.4804    2.8322 H   0  0  0  0  0  0  0  0  0  0  0  0
    4.4146   -1.5851    1.9192 H   0  0  0  0  0  0  0  0  0  0  0  0
    5.3279   -3.1884    4.3119 H   0  0  0  0  0  0  0  0  0  0  0  0
    4.0318   -2.0424    4.2513 H   0  0  0  0  0  0  0  0  0  0  0  0
    1.8049   -2.5838    3.1801 H   0  0  0  0  0  0  0  0  0  0  0  0
    1.6454   -4.0090    2.1587 H   0  0  0  0  0  0  0  0  0  0  0  0
    2.7037   -2.7382    1.7191 H   0  0  0  0  0  0  0  0  0  0  0  0
    2.0937   -2.7229    5.6083 H   0  0  0  0  0  0  0  0  0  0  0  0
    3.6840   -3.1082    6.1878 H   0  0  0  0  0  0  0  0  0  0  0  0
    2.3224   -3.9840    6.8115 H   0  0  0  0  0  0  0  0  0  0  0  0
    0.9433   -5.3283    5.5965 H   0  0  0  0  0  0  0  0  0  0  0  0
    0.7174   -4.2073    4.3392 H   0  0  0  0  0  0  0  0  0  0  0  0
   -0.1615   -6.1939    3.5758 H   0  0  0  0  0  0  0  0  0  0  0  0
    1.2809   -6.0400    2.6391 H   0  0  0  0  0  0  0  0  0  0  0  0
    1.4499   -7.4609    6.2463 H   0  0  0  0  0  0  0  0  0  0  0  0
    1.0221   -9.0698    5.7071 H   0  0  0  0  0  0  0  0  0  0  0  0
   -0.1770   -7.7894    5.6579 H   0  0  0  0  0  0  0  0  0  0  0  0
  1  2  2  0
  1 33  1  0
  1 34  1  0
  2 31  1  0
  2  3  1  0
  3  4  1  0
  3 35  1  0
  3 36  1  0
  4  5  1  0
  4 37  1  0
  4 38  1  0
  5 31  1  0
  5  6  1  0
  5 39  1  1
  6 11  1  0
  6  7  2  0
  7 27  1  0
  7  8  1  0
  8  9  1  0
  8 10  1  0
  8 40  1  1
  9 41  1  0
 10 11  1  0
 10 42  1  0
 10 43  1  0
 11 12  1  0
 11 44  1  6
 12 25  1  0
 12 13  1  0
 12 45  1  6
 13 22  1  0
 13 14  1  6
 13 15  1  0
 14 46  1  0
 14 47  1  0
 14 48  1  0
 15 16  1  0
 15 49  1  0
 15 50  1  0
 16 17  1  0
 16 51  1  0
 16 52  1  0
 17 18  1  0
 17 19  1  0
 17 53  1  6
 18 54  1  0
 18 55  1  0
 18 56  1  0
 19 20  1  0
 19 21  1  1
 19 22  1  0
 20 57  1  0
 20 58  1  0
 20 59  1  0
 21 60  1  0
 22 23  1  0
 22 61  1  1
 23 24  1  0
 23 62  1  0
 23 63  1  0
 24 25  1  0
 24 64  1  0
 24 65  1  0
 25 26  1  6
 25 27  1  0
 26 66  1  0
 26 67  1  0
 26 68  1  0
 27 28  1  1
 27 29  1  0
 28 69  1  0
 28 70  1  0
 28 71  1  0
 29 30  1  0
 29 72  1  0
 29 73  1  0
 30 31  1  0
 30 74  1  0
 30 75  1  0
 31 32  1  1
 32 76  1  0
 32 77  1  0
 32 78  1  0
M  END
>  <i_m_ct_stereo_status>  (77) 
1

>  <s_m_source_file>  (77) 
/var/tmp/pbs.5076255.sched01/tmpuvpulguu/0mmv31ww_.sdf

>  <i_m_source_file_index>  (77) 
39

>  <i_lp_mmshare_version>  (77) 
48012

>  <i_f3d_flags>  (77) 
0

>  <s_epik_input>  (77) 
W0NIMl09QzFbQ0gyXVtDSDJdW0NAQEhdMltDQEBdMShbQ0gzXSlbQ0gyXVtDSDJdW0NAQF0oW0NIM10pKEMoW0NAQEhdKFtPSF0pW0NIMl0zKT1DMltDQEhdM1tDQEBIXTRbQ0BAXTU2W0NIM10pW0NAQF00KFtDSDNdKVtDSDJdW0NIMl1bQ0BASF02W0NAXShbQ0gzXSkoW09IXSlbQ0BIXShbQ0gzXSlbQ0gyXVtDSDJdNQ==

>  <s_epik_cmdline>  (77) 
J2VwaWtfcHl0aG9uJywgJy1waHQnLCAnMi4wJywgJy1waCcsICc3LjAnLCAnLXRuJywgJzgnLCAnLW1hJywgJzIwMCcsICctaW1hZScsICc8aW5maWxlLm1hZT4nLCAnLW9tYWUnLCAnPG91dGZpbGUubWFlPic=

>  <r_lp_tautomer_probability>  (77) 
1

>  <r_epik_Ionization_Penalty>  (77) 
3.31514e-06

>  <r_epik_Ionization_Penalty_Charging>  (77) 
0

>  <r_epik_Ionization_Penalty_Neutral>  (77) 
3.31514e-06

>  <r_epik_State_Penalty>  (77) 
-0

>  <r_epik_Charging_Adjusted_Penalty>  (77) 
0

>  <i_epik_Tot_Q>  (77) 
0

>  <i_epik_Tot_abs_Q>  (77) 
0

>  <s_lp_Force_Field>  (77) 
OPLS3e

>  <r_lp_Energy>  (77) 
145.395

>  <b_lp_Chiralities_Consistent>  (77) 
1

>  <s_lp_Variant>  (77) 
25:0-1

>  <s_i_glide_gridfile>  (77) 
pfpi4k_grid

>  <i_i_glide_lignum>  (77) 
39

>  <i_i_glide_rotatable_bonds>  (77) 
2

>  <r_i_docking_score>  (77) 
-2.65867

>  <r_i_glide_ligand_efficiency>  (77) 
-0.0830834

>  <r_i_glide_ligand_efficiency_sa>  (77) 
-0.263773

>  <r_i_glide_ligand_efficiency_ln>  (77) 
-0.595348

>  <r_i_glide_gscore>  (77) 
-2.65867

>  <r_i_glide_lipo>  (77) 
-0.532287

>  <r_i_glide_hbond>  (77) 
-4.94517e-05

>  <r_i_glide_metal>  (77) 
-0

>  <r_i_glide_rewards>  (77) 
-0.418057

>  <r_i_glide_evdw>  (77) 
-30.0939

>  <r_i_glide_ecoul>  (77) 
-1.3572

>  <r_i_glide_erotb>  (77) 
0

>  <r_i_glide_esite>  (77) 
0

>  <r_i_glide_emodel>  (77) 
-36.5359

>  <r_i_glide_energy>  (77) 
-31.4511

>  <r_i_glide_einternal>  (77) 
0.0580781

>  <r_i_glide_intrahb_reward>  (77) 
-0

>  <i_i_glide_confnum>  (77) 
2

>  <i_i_glide_posenum>  (77) 
2

>  <r_i_glide_eff_state_penalty>  (77) 
0

>  <ligand_id>  (77) 
25

>  <original_smiles>  (77) 
C=C1CCC2C3=C4C(O)CC3C3C5(C)CCC(C)C(C)(O)C5CCC3(C)C4(C)CCC12C

>  <smiles>  (77) 
[H]OC1([H])C2=C3C([H])(C1([H])[H])C1([H])C4(C([H])([H])[H])C([H])([H])C([H])([H])C([H])(C([H])([H])[H])C(O[H])(C([H])([H])[H])C4([H])C([H])([H])C([H])([H])C1(C([H])([H])[H])C2(C([H])([H])[H])C([H])([H])C([H])([H])C1(C([H])([H])[H])C(=C([H])[H])C([H])([H])C([H])([H])C31[H]

$$$$
26:0:0
     RDKit          3D

 48 51  0  0  1  0  0  0  0  0999 V2000
   -1.3679    1.1085    2.2507 C   0  0  0  0  0  0  0  0  0  0  0  0
   -0.1050    1.3032    1.8505 C   0  0  0  0  0  0  0  0  0  0  0  0
    0.9802    1.9945    2.6452 C   0  0  0  0  0  0  0  0  0  0  0  0
    2.1521    1.1164    2.9119 N   0  0  1  0  0  0  0  0  0  0  0  0
    1.8752   -0.0600    3.7729 C   0  0  0  0  0  0  0  0  0  0  0  0
    2.2166   -1.2684    2.9009 C   0  0  2  0  0  0  0  0  0  0  0  0
    2.5326   -2.5713    3.6283 C   0  0  1  0  0  0  0  0  0  0  0  0
    1.3005   -3.2032    3.9714 O   0  0  0  0  0  0  0  0  0  0  0  0
    1.4165   -4.5988    3.7470 C   0  0  0  0  0  0  0  0  0  0  0  0
    2.3196   -4.7084    2.5215 C   0  0  0  0  0  0  0  0  0  0  0  0
    3.2971   -3.5690    2.7372 C   0  0  1  0  0  0  0  0  0  0  0  0
    4.0160   -3.0147    1.4697 C   0  0  0  0  0  0  0  0  0  0  0  0
    3.5772   -1.6998    0.9658 N   0  0  0  0  0  0  0  0  0  0  0  0
    4.5594   -1.2089   -0.0115 C   0  0  0  0  0  0  0  0  0  0  0  0
    4.4523   -1.8666   -1.3730 C   0  0  0  0  0  0  0  0  0  0  0  0
    3.4437   -1.4561   -2.2672 C   0  0  0  0  0  0  0  0  0  0  0  0
    3.3505   -2.0853   -3.5211 C   0  0  0  0  0  0  0  0  0  0  0  0
    4.1947   -3.0541   -3.9180 N   0  0  0  0  0  0  0  0  0  0  0  0
    5.1542   -3.4471   -3.0621 C   0  0  0  0  0  0  0  0  0  0  0  0
    5.3406   -2.8805   -1.7862 C   0  0  0  0  0  0  0  0  0  0  0  0
    3.4069   -0.7714    2.0817 C   0  0  1  0  0  0  0  0  0  0  0  0
    2.9019    0.6358    1.7193 C   0  0  0  0  0  0  0  0  0  0  0  0
   -1.7382    1.4449    3.2097 H   0  0  0  0  0  0  0  0  0  0  0  0
   -2.0519    0.5991    1.5867 H   0  0  0  0  0  0  0  0  0  0  0  0
    0.1739    0.9367    0.8796 H   0  0  0  0  0  0  0  0  0  0  0  0
    1.3115    2.8812    2.1039 H   0  0  0  0  0  0  0  0  0  0  0  0
    0.5709    2.3497    3.5921 H   0  0  0  0  0  0  0  0  0  0  0  0
    2.5479   -0.0080    4.6335 H   0  0  0  0  0  0  0  0  0  0  0  0
    0.8546   -0.0851    4.1556 H   0  0  0  0  0  0  0  0  0  0  0  0
    1.3737   -1.4397    2.2234 H   0  0  0  0  0  0  0  0  0  0  0  0
    3.1152   -2.3767    4.5302 H   0  0  0  0  0  0  0  0  0  0  0  0
    1.8808   -5.0630    4.6183 H   0  0  0  0  0  0  0  0  0  0  0  0
    0.4421   -5.0581    3.5909 H   0  0  0  0  0  0  0  0  0  0  0  0
    2.8098   -5.6806    2.4595 H   0  0  0  0  0  0  0  0  0  0  0  0
    1.7549   -4.5575    1.6063 H   0  0  0  0  0  0  0  0  0  0  0  0
    4.0851   -3.9910    3.3591 H   0  0  0  0  0  0  0  0  0  0  0  0
    5.0786   -2.9490    1.7040 H   0  0  0  0  0  0  0  0  0  0  0  0
    3.9459   -3.7409    0.6614 H   0  0  0  0  0  0  0  0  0  0  0  0
    4.4478   -0.1385   -0.1786 H   0  0  0  0  0  0  0  0  0  0  0  0
    5.5689   -1.3353    0.3773 H   0  0  0  0  0  0  0  0  0  0  0  0
    2.7383   -0.6862   -1.9884 H   0  0  0  0  0  0  0  0  0  0  0  0
    2.5770   -1.7978   -4.2187 H   0  0  0  0  0  0  0  0  0  0  0  0
    5.8000   -4.2379   -3.4112 H   0  0  0  0  0  0  0  0  0  0  0  0
    6.1352   -3.2398   -1.1440 H   0  0  0  0  0  0  0  0  0  0  0  0
    4.3134   -0.7086    2.6860 H   0  0  0  0  0  0  0  0  0  0  0  0
    2.2514    0.5587    0.8515 H   0  0  0  0  0  0  0  0  0  0  0  0
    3.7033    1.3265    1.4545 H   0  0  0  0  0  0  0  0  0  0  0  0
    2.8011    1.6952    3.4303 H   0  0  0  0  0  0  0  0  0  0  0  0
  1  2  2  0
  1 23  1  0
  1 24  1  0
  2  3  1  0
  2 25  1  0
  3  4  1  0
  3 26  1  0
  3 27  1  0
  4 22  1  0
  4  5  1  0
  4 48  1  1
  5  6  1  0
  5 28  1  0
  5 29  1  0
  6 21  1  0
  6  7  1  0
  6 30  1  6
  7 11  1  0
  7  8  1  0
  7 31  1  1
  8  9  1  0
  9 10  1  0
  9 32  1  0
  9 33  1  0
 10 11  1  0
 10 34  1  0
 10 35  1  0
 11 12  1  0
 11 36  1  1
 12 13  1  0
 12 37  1  0
 12 38  1  0
 13 14  1  0
 13 21  1  0
 14 15  1  0
 14 39  1  0
 14 40  1  0
 15 20  1  0
 15 16  2  0
 16 17  1  0
 16 41  1  0
 17 18  2  0
 17 42  1  0
 18 19  1  0
 19 20  2  0
 19 43  1  0
 20 44  1  0
 21 22  1  0
 21 45  1  1
 22 46  1  0
 22 47  1  0
M  CHG  1   4   1
M  END
>  <i_m_ct_stereo_status>  (78) 
1

>  <s_m_source_file>  (78) 
/var/tmp/pbs.5076255.sched01/tmpuvpulguu/0mmv31ww_.sdf

>  <i_m_source_file_index>  (78) 
40

>  <i_lp_mmshare_version>  (78) 
48012

>  <i_f3d_flags>  (78) 
0

>  <s_epik_input>  (78) 
W0NIMl09W0NIXVtDSDJdTihbQ0gyXTEpW0NIMl1bQ0BASF0yTihbQ0gyXVtDQEBIXShbQ0BIXTNbQ0BASF0xMilbQ0gyXVtDSDJdTzMpW0NIMl1jNFtjSF1bY0hdbltjSF1bY0hdNA==

>  <s_epik_cmdline>  (78) 
J2VwaWtfcHl0aG9uJywgJy1waHQnLCAnMi4wJywgJy1waCcsICc3LjAnLCAnLXRuJywgJzgnLCAnLW1hJywgJzIwMCcsICctaW1hZScsICc8aW5maWxlLm1hZT4nLCAnLW9tYWUnLCAnPG91dGZpbGUubWFlPic=

>  <r_lp_tautomer_probability>  (78) 
1

>  <r_epik_Ionization_Penalty>  (78) 
0.00637312

>  <r_epik_Ionization_Penalty_Charging>  (78) 
0.000449849

>  <r_epik_Ionization_Penalty_Neutral>  (78) 
0.00592328

>  <r_epik_State_Penalty>  (78) 
-0

>  <r_epik_Charging_Adjusted_Penalty>  (78) 
0.000449849

>  <i_epik_Tot_Q>  (78) 
1

>  <i_epik_Tot_abs_Q>  (78) 
1

>  <s_lp_Force_Field>  (78) 
OPLS3e

>  <r_lp_Energy>  (78) 
24.9541

>  <b_lp_Chiralities_Consistent>  (78) 
1

>  <s_lp_Variant>  (78) 
26:0-1

>  <s_i_glide_gridfile>  (78) 
pfpi4k_grid

>  <i_i_glide_lignum>  (78) 
40

>  <i_i_glide_rotatable_bonds>  (78) 
4

>  <r_i_docking_score>  (78) 
-3.1946

>  <r_i_glide_ligand_efficiency>  (78) 
-0.145209

>  <r_i_glide_ligand_efficiency_sa>  (78) 
-0.406881

>  <r_i_glide_ligand_efficiency_ln>  (78) 
-0.780876

>  <r_i_glide_gscore>  (78) 
-3.1946

>  <r_i_glide_lipo>  (78) 
-0.575664

>  <r_i_glide_hbond>  (78) 
-0.0807169

>  <r_i_glide_metal>  (78) 
-0

>  <r_i_glide_rewards>  (78) 
-1.36078

>  <r_i_glide_evdw>  (78) 
-27.9864

>  <r_i_glide_ecoul>  (78) 
-3.9446

>  <r_i_glide_erotb>  (78) 
0.814676

>  <r_i_glide_esite>  (78) 
-0.00110158

>  <r_i_glide_emodel>  (78) 
-37.7234

>  <r_i_glide_energy>  (78) 
-31.931

>  <r_i_glide_einternal>  (78) 
2.01466

>  <r_i_glide_intrahb_reward>  (78) 
-0

>  <i_i_glide_confnum>  (78) 
4

>  <i_i_glide_posenum>  (78) 
23

>  <r_i_glide_eff_state_penalty>  (78) 
0

>  <ligand_id>  (78) 
26

>  <original_smiles>  (78) 
C=CCN1CC2C3OCCC3CN(Cc3ccncc3)C2C1

>  <smiles>  (78) 
[H]C([H])=C([H])C([H])([H])[N+]1([H])C([H])([H])C2([H])N(C([H])([H])c3c([H])c([H])nc([H])c3[H])C([H])([H])C3([H])C([H])([H])C([H])([H])OC3([H])C2([H])C1([H])[H]

$$$$
26:0:1
     RDKit          3D

 48 51  0  0  1  0  0  0  0  0999 V2000
   -0.7402   -1.1214    4.7386 C   0  0  0  0  0  0  0  0  0  0  0  0
    0.4334   -1.0870    4.0889 C   0  0  0  0  0  0  0  0  0  0  0  0
    1.7951   -1.1305    4.7604 C   0  0  0  0  0  0  0  0  0  0  0  0
    2.6214   -2.2757    4.2943 N   0  0  1  0  0  0  0  0  0  0  0  0
    1.9894   -3.6124    4.4125 C   0  0  0  0  0  0  0  0  0  0  0  0
    1.9269   -4.1352    2.9797 C   0  0  2  0  0  0  0  0  0  0  0  0
    1.7968   -5.6476    2.8055 C   0  0  1  0  0  0  0  0  0  0  0  0
    0.4184   -5.9930    2.9527 O   0  0  0  0  0  0  0  0  0  0  0  0
    0.0803   -6.9929    2.0030 C   0  0  0  0  0  0  0  0  0  0  0  0
    0.8996   -6.6191    0.7804 C   0  0  0  0  0  0  0  0  0  0  0  0
    2.1989   -6.1168    1.3944 C   0  0  1  0  0  0  0  0  0  0  0  0
    3.0778   -5.1516    0.5410 C   0  0  0  0  0  0  0  0  0  0  0  0
    3.0639   -3.7201    0.8980 N   0  0  0  0  0  0  0  0  0  0  0  0
    4.1759   -3.0528    0.1930 C   0  0  0  0  0  0  0  0  0  0  0  0
    4.0895   -3.0967   -1.3271 C   0  0  0  0  0  0  0  0  0  0  0  0
    3.0020   -2.5129   -1.9887 C   0  0  0  0  0  0  0  0  0  0  0  0
    2.9014   -2.5761   -3.3850 C   0  0  0  0  0  0  0  0  0  0  0  0
    3.8259   -3.1788   -4.1522 N   0  0  0  0  0  0  0  0  0  0  0  0
    4.8663   -3.7561   -3.5198 C   0  0  0  0  0  0  0  0  0  0  0  0
    5.0592   -3.7371   -2.1222 C   0  0  0  0  0  0  0  0  0  0  0  0
    3.2005   -3.5804    2.3494 C   0  0  1  0  0  0  0  0  0  0  0  0
    3.1735   -2.1476    2.9181 C   0  0  0  0  0  0  0  0  0  0  0  0
   -0.8031   -1.1769    5.8175 H   0  0  0  0  0  0  0  0  0  0  0  0
   -1.6660   -1.0889    4.1773 H   0  0  0  0  0  0  0  0  0  0  0  0
    0.4243   -1.0292    3.0112 H   0  0  0  0  0  0  0  0  0  0  0  0
    2.3201   -0.1952    4.5721 H   0  0  0  0  0  0  0  0  0  0  0  0
    1.6715   -1.1956    5.8414 H   0  0  0  0  0  0  0  0  0  0  0  0
    2.6378   -4.2436    5.0233 H   0  0  0  0  0  0  0  0  0  0  0  0
    1.0140   -3.5973    4.8963 H   0  0  0  0  0  0  0  0  0  0  0  0
    1.0773   -3.6503    2.4941 H   0  0  0  0  0  0  0  0  0  0  0  0
    2.4026   -6.1730    3.5455 H   0  0  0  0  0  0  0  0  0  0  0  0
    0.3694   -7.9764    2.3788 H   0  0  0  0  0  0  0  0  0  0  0  0
   -0.9877   -6.9992    1.7900 H   0  0  0  0  0  0  0  0  0  0  0  0
    1.0203   -7.4714    0.1205 H   0  0  0  0  0  0  0  0  0  0  0  0
    0.4029   -5.8561    0.1939 H   0  0  0  0  0  0  0  0  0  0  0  0
    2.8068   -7.0122    1.5291 H   0  0  0  0  0  0  0  0  0  0  0  0
    4.1106   -5.5068    0.5689 H   0  0  0  0  0  0  0  0  0  0  0  0
    2.7730   -5.2344   -0.4981 H   0  0  0  0  0  0  0  0  0  0  0  0
    4.2151   -1.9990    0.4779 H   0  0  0  0  0  0  0  0  0  0  0  0
    5.1245   -3.4874    0.5073 H   0  0  0  0  0  0  0  0  0  0  0  0
    2.2174   -2.0567   -1.4261 H   0  0  0  0  0  0  0  0  0  0  0  0
    2.0501   -2.1443   -3.8887 H   0  0  0  0  0  0  0  0  0  0  0  0
    5.5623   -4.2562   -4.1727 H   0  0  0  0  0  0  0  0  0  0  0  0
    5.9069   -4.2327   -1.6766 H   0  0  0  0  0  0  0  0  0  0  0  0
    4.0817   -4.1162    2.7142 H   0  0  0  0  0  0  0  0  0  0  0  0
    2.5280   -1.5158    2.3078 H   0  0  0  0  0  0  0  0  0  0  0  0
    4.1576   -1.6793    2.9299 H   0  0  0  0  0  0  0  0  0  0  0  0
    3.4197   -2.2972    4.9117 H   0  0  0  0  0  0  0  0  0  0  0  0
  1  2  2  0
  1 23  1  0
  1 24  1  0
  2  3  1  0
  2 25  1  0
  3  4  1  0
  3 26  1  0
  3 27  1  0
  4 22  1  0
  4  5  1  0
  4 48  1  1
  5  6  1  0
  5 28  1  0
  5 29  1  0
  6 21  1  0
  6  7  1  0
  6 30  1  6
  7 11  1  0
  7  8  1  0
  7 31  1  1
  8  9  1  0
  9 10  1  0
  9 32  1  0
  9 33  1  0
 10 11  1  0
 10 34  1  0
 10 35  1  0
 11 12  1  0
 11 36  1  1
 12 13  1  0
 12 37  1  0
 12 38  1  0
 13 14  1  0
 13 21  1  0
 14 15  1  0
 14 39  1  0
 14 40  1  0
 15 20  1  0
 15 16  2  0
 16 17  1  0
 16 41  1  0
 17 18  2  0
 17 42  1  0
 18 19  1  0
 19 20  2  0
 19 43  1  0
 20 44  1  0
 21 22  1  0
 21 45  1  1
 22 46  1  0
 22 47  1  0
M  CHG  1   4   1
M  END
>  <i_m_ct_stereo_status>  (79) 
1

>  <s_m_source_file>  (79) 
/var/tmp/pbs.5076255.sched01/tmpuvpulguu/0mmv31ww_.sdf

>  <i_m_source_file_index>  (79) 
40

>  <i_lp_mmshare_version>  (79) 
48012

>  <i_f3d_flags>  (79) 
0

>  <s_epik_input>  (79) 
W0NIMl09W0NIXVtDSDJdTihbQ0gyXTEpW0NIMl1bQ0BASF0yTihbQ0gyXVtDQEBIXShbQ0BIXTNbQ0BASF0xMilbQ0gyXVtDSDJdTzMpW0NIMl1jNFtjSF1bY0hdbltjSF1bY0hdNA==

>  <s_epik_cmdline>  (79) 
J2VwaWtfcHl0aG9uJywgJy1waHQnLCAnMi4wJywgJy1waCcsICc3LjAnLCAnLXRuJywgJzgnLCAnLW1hJywgJzIwMCcsICctaW1hZScsICc8aW5maWxlLm1hZT4nLCAnLW9tYWUnLCAnPG91dGZpbGUubWFlPic=

>  <r_lp_tautomer_probability>  (79) 
1

>  <r_epik_Ionization_Penalty>  (79) 
0.00637312

>  <r_epik_Ionization_Penalty_Charging>  (79) 
0.000449849

>  <r_epik_Ionization_Penalty_Neutral>  (79) 
0.00592328

>  <r_epik_State_Penalty>  (79) 
-0

>  <r_epik_Charging_Adjusted_Penalty>  (79) 
0.000449849

>  <i_epik_Tot_Q>  (79) 
1

>  <i_epik_Tot_abs_Q>  (79) 
1

>  <s_lp_Force_Field>  (79) 
OPLS3e

>  <r_lp_Energy>  (79) 
24.9541

>  <b_lp_Chiralities_Consistent>  (79) 
1

>  <s_lp_Variant>  (79) 
26:0-1

>  <s_i_glide_gridfile>  (79) 
pfpi4k_grid

>  <i_i_glide_lignum>  (79) 
40

>  <i_i_glide_rotatable_bonds>  (79) 
4

>  <r_i_docking_score>  (79) 
-2.90514

>  <r_i_glide_ligand_efficiency>  (79) 
-0.132052

>  <r_i_glide_ligand_efficiency_sa>  (79) 
-0.370015

>  <r_i_glide_ligand_efficiency_ln>  (79) 
-0.710123

>  <r_i_glide_gscore>  (79) 
-2.90514

>  <r_i_glide_lipo>  (79) 
-0.296749

>  <r_i_glide_hbond>  (79) 
-0.24729

>  <r_i_glide_metal>  (79) 
-0

>  <r_i_glide_rewards>  (79) 
-1.36078

>  <r_i_glide_evdw>  (79) 
-22.7422

>  <r_i_glide_ecoul>  (79) 
-4.51925

>  <r_i_glide_erotb>  (79) 
0.814676

>  <r_i_glide_esite>  (79) 
0

>  <r_i_glide_emodel>  (79) 
-32.6358

>  <r_i_glide_energy>  (79) 
-27.2615

>  <r_i_glide_einternal>  (79) 
1.19566

>  <r_i_glide_intrahb_reward>  (79) 
-0

>  <i_i_glide_confnum>  (79) 
4

>  <i_i_glide_posenum>  (79) 
20

>  <r_i_glide_eff_state_penalty>  (79) 
0

>  <ligand_id>  (79) 
26

>  <original_smiles>  (79) 
C=CCN1CC2C3OCCC3CN(Cc3ccncc3)C2C1

>  <smiles>  (79) 
[H]C([H])=C([H])C([H])([H])[N+]1([H])C([H])([H])C2([H])N(C([H])([H])c3c([H])c([H])nc([H])c3[H])C([H])([H])C3([H])C([H])([H])C([H])([H])OC3([H])C2([H])C1([H])[H]

$$$$
26:0:2
     RDKit          3D

 48 51  0  0  1  0  0  0  0  0999 V2000
    3.2057    6.2641    4.2650 C   0  0  0  0  0  0  0  0  0  0  0  0
    2.6512    5.5733    3.2517 C   0  0  0  0  0  0  0  0  0  0  0  0
    2.7341    4.0668    3.1065 C   0  0  0  0  0  0  0  0  0  0  0  0
    1.4135    3.4221    2.8981 N   0  0  1  0  0  0  0  0  0  0  0  0
    1.4928    1.9575    2.6936 C   0  0  0  0  0  0  0  0  0  0  0  0
    0.7364    1.3321    3.8682 C   0  0  2  0  0  0  0  0  0  0  0  0
    0.1983   -0.0831    3.6678 C   0  0  1  0  0  0  0  0  0  0  0  0
    1.2479   -1.0168    3.9056 O   0  0  0  0  0  0  0  0  0  0  0  0
    0.7398   -2.1239    4.6337 C   0  0  0  0  0  0  0  0  0  0  0  0
   -0.3132   -1.5202    5.5529 C   0  0  0  0  0  0  0  0  0  0  0  0
   -0.9119   -0.4361    4.6750 C   0  0  1  0  0  0  0  0  0  0  0  0
   -1.6232    0.7441    5.3983 C   0  0  0  0  0  0  0  0  0  0  0  0
   -0.9225    2.0409    5.4397 N   0  0  0  0  0  0  0  0  0  0  0  0
   -1.8854    3.0639    5.8782 C   0  0  0  0  0  0  0  0  0  0  0  0
   -2.0579    3.1329    7.3816 C   0  0  0  0  0  0  0  0  0  0  0  0
   -0.9510    3.4416    8.1879 C   0  0  0  0  0  0  0  0  0  0  0  0
   -1.1301    3.5217    9.5805 C   0  0  0  0  0  0  0  0  0  0  0  0
   -2.3208    3.3292   10.1791 N   0  0  0  0  0  0  0  0  0  0  0  0
   -3.3841    3.0491    9.4092 C   0  0  0  0  0  0  0  0  0  0  0  0
   -3.3120    2.9402    8.0054 C   0  0  0  0  0  0  0  0  0  0  0  0
   -0.3796    2.3428    4.1133 C   0  0  1  0  0  0  0  0  0  0  0  0
    0.4336    3.6463    3.9923 C   0  0  0  0  0  0  0  0  0  0  0  0
    3.7482    5.7822    5.0679 H   0  0  0  0  0  0  0  0  0  0  0  0
    3.1261    7.3403    4.2926 H   0  0  0  0  0  0  0  0  0  0  0  0
    2.1226    6.1094    2.4810 H   0  0  0  0  0  0  0  0  0  0  0  0
    3.3675    3.8689    2.2442 H   0  0  0  0  0  0  0  0  0  0  0  0
    3.2452    3.6423    3.9719 H   0  0  0  0  0  0  0  0  0  0  0  0
    0.9913    1.7334    1.7500 H   0  0  0  0  0  0  0  0  0  0  0  0
    2.5156    1.5915    2.6211 H   0  0  0  0  0  0  0  0  0  0  0  0
    1.3952    1.3304    4.7432 H   0  0  0  0  0  0  0  0  0  0  0  0
   -0.1892   -0.1995    2.6563 H   0  0  0  0  0  0  0  0  0  0  0  0
    0.2857   -2.8292    3.9372 H   0  0  0  0  0  0  0  0  0  0  0  0
    1.5271   -2.6315    5.1893 H   0  0  0  0  0  0  0  0  0  0  0  0
   -1.0495   -2.2579    5.8740 H   0  0  0  0  0  0  0  0  0  0  0  0
    0.1562   -1.0898    6.4341 H   0  0  0  0  0  0  0  0  0  0  0  0
   -1.6912   -0.9403    4.1070 H   0  0  0  0  0  0  0  0  0  0  0  0
   -2.5747    0.8775    4.8886 H   0  0  0  0  0  0  0  0  0  0  0  0
   -1.8760    0.4540    6.4188 H   0  0  0  0  0  0  0  0  0  0  0  0
   -1.5700    4.0579    5.5694 H   0  0  0  0  0  0  0  0  0  0  0  0
   -2.8529    2.9150    5.3996 H   0  0  0  0  0  0  0  0  0  0  0  0
    0.0207    3.6196    7.7470 H   0  0  0  0  0  0  0  0  0  0  0  0
   -0.2990    3.7454   10.2304 H   0  0  0  0  0  0  0  0  0  0  0  0
   -4.3146    2.8948    9.9367 H   0  0  0  0  0  0  0  0  0  0  0  0
   -4.1987    2.7072    7.4384 H   0  0  0  0  0  0  0  0  0  0  0  0
   -1.1546    2.2917    3.3443 H   0  0  0  0  0  0  0  0  0  0  0  0
    0.9645    3.8352    4.9271 H   0  0  0  0  0  0  0  0  0  0  0  0
   -0.1861    4.5183    3.7909 H   0  0  0  0  0  0  0  0  0  0  0  0
    0.9995    3.8036    2.0318 H   0  0  0  0  0  0  0  0  0  0  0  0
  1  2  2  0
  1 23  1  0
  1 24  1  0
  2  3  1  0
  2 25  1  0
  3  4  1  0
  3 26  1  0
  3 27  1  0
  4 22  1  0
  4  5  1  0
  4 48  1  6
  5  6  1  0
  5 28  1  0
  5 29  1  0
  6 21  1  0
  6  7  1  0
  6 30  1  1
  7 11  1  0
  7  8  1  0
  7 31  1  6
  8  9  1  0
  9 10  1  0
  9 32  1  0
  9 33  1  0
 10 11  1  0
 10 34  1  0
 10 35  1  0
 11 12  1  0
 11 36  1  6
 12 13  1  0
 12 37  1  0
 12 38  1  0
 13 14  1  0
 13 21  1  0
 14 15  1  0
 14 39  1  0
 14 40  1  0
 15 20  1  0
 15 16  2  0
 16 17  1  0
 16 41  1  0
 17 18  2  0
 17 42  1  0
 18 19  1  0
 19 20  2  0
 19 43  1  0
 20 44  1  0
 21 22  1  0
 21 45  1  6
 22 46  1  0
 22 47  1  0
M  CHG  1   4   1
M  END
>  <i_m_ct_stereo_status>  (80) 
1

>  <s_m_source_file>  (80) 
/var/tmp/pbs.5076255.sched01/tmpuvpulguu/0mmv31ww_.sdf

>  <i_m_source_file_index>  (80) 
40

>  <i_lp_mmshare_version>  (80) 
48012

>  <i_f3d_flags>  (80) 
0

>  <s_epik_input>  (80) 
W0NIMl09W0NIXVtDSDJdTihbQ0gyXTEpW0NIMl1bQ0BASF0yTihbQ0gyXVtDQEBIXShbQ0BIXTNbQ0BASF0xMilbQ0gyXVtDSDJdTzMpW0NIMl1jNFtjSF1bY0hdbltjSF1bY0hdNA==

>  <s_epik_cmdline>  (80) 
J2VwaWtfcHl0aG9uJywgJy1waHQnLCAnMi4wJywgJy1waCcsICc3LjAnLCAnLXRuJywgJzgnLCAnLW1hJywgJzIwMCcsICctaW1hZScsICc8aW5maWxlLm1hZT4nLCAnLW9tYWUnLCAnPG91dGZpbGUubWFlPic=

>  <r_lp_tautomer_probability>  (80) 
1

>  <r_epik_Ionization_Penalty>  (80) 
0.00637312

>  <r_epik_Ionization_Penalty_Charging>  (80) 
0.000449849

>  <r_epik_Ionization_Penalty_Neutral>  (80) 
0.00592328

>  <r_epik_State_Penalty>  (80) 
-0

>  <r_epik_Charging_Adjusted_Penalty>  (80) 
0.000449849

>  <i_epik_Tot_Q>  (80) 
1

>  <i_epik_Tot_abs_Q>  (80) 
1

>  <s_lp_Force_Field>  (80) 
OPLS3e

>  <r_lp_Energy>  (80) 
24.9541

>  <b_lp_Chiralities_Consistent>  (80) 
1

>  <s_lp_Variant>  (80) 
26:0-1

>  <s_i_glide_gridfile>  (80) 
pfpi4k_grid

>  <i_i_glide_lignum>  (80) 
40

>  <i_i_glide_rotatable_bonds>  (80) 
4

>  <r_i_docking_score>  (80) 
-2.83569

>  <r_i_glide_ligand_efficiency>  (80) 
-0.128895

>  <r_i_glide_ligand_efficiency_sa>  (80) 
-0.361169

>  <r_i_glide_ligand_efficiency_ln>  (80) 
-0.693147

>  <r_i_glide_gscore>  (80) 
-2.83569

>  <r_i_glide_lipo>  (80) 
-0.192092

>  <r_i_glide_hbond>  (80) 
-0.2

>  <r_i_glide_metal>  (80) 
-0

>  <r_i_glide_rewards>  (80) 
-1.36078

>  <r_i_glide_evdw>  (80) 
-24.2838

>  <r_i_glide_ecoul>  (80) 
-3.90582

>  <r_i_glide_erotb>  (80) 
0.814676

>  <r_i_glide_esite>  (80) 
-0.0974343

>  <r_i_glide_emodel>  (80) 
-33.2882

>  <r_i_glide_energy>  (80) 
-28.1896

>  <r_i_glide_einternal>  (80) 
1.51472

>  <r_i_glide_intrahb_reward>  (80) 
-0

>  <i_i_glide_confnum>  (80) 
1

>  <i_i_glide_posenum>  (80) 
12

>  <r_i_glide_eff_state_penalty>  (80) 
0

>  <ligand_id>  (80) 
26

>  <original_smiles>  (80) 
C=CCN1CC2C3OCCC3CN(Cc3ccncc3)C2C1

>  <smiles>  (80) 
[H]C([H])=C([H])C([H])([H])[N+]1([H])C([H])([H])C2([H])N(C([H])([H])c3c([H])c([H])nc([H])c3[H])C([H])([H])C3([H])C([H])([H])C([H])([H])OC3([H])C2([H])C1([H])[H]

$$$$
28:0:0
     RDKit          3D

 60 66  0  0  1  0  0  0  0  0999 V2000
    8.4860   -6.2306    4.1201 C   0  0  0  0  0  0  0  0  0  0  0  0
    7.1941   -6.2500    3.7628 C   0  0  0  0  0  0  0  0  0  0  0  0
    6.0346   -5.6019    4.5059 C   0  0  0  0  0  0  0  0  0  0  0  0
    5.3971   -4.4757    3.7607 N   0  0  2  0  0  0  0  0  0  0  0  0
    4.4008   -3.7170    4.5862 C   0  0  0  0  0  0  0  0  0  0  0  0
    3.2761   -3.2332    3.6197 C   0  0  0  0  0  0  0  0  0  0  0  0
    3.8307   -3.5230    2.2135 C   0  0  1  0  0  0  0  0  0  0  0  0
    4.9085   -2.3832    1.8224 C   0  0  1  0  0  0  0  0  0  0  0  0
    5.0422   -1.1274    2.7078 C   0  0  0  0  0  0  0  0  0  0  0  0
    6.2662   -2.8853    1.7069 O   0  0  0  0  0  0  0  0  0  0  0  0
    6.4347   -3.5633    0.5341 C   0  0  0  0  0  0  0  0  0  0  0  0
    7.1286   -2.9866   -0.5573 C   0  0  0  0  0  0  0  0  0  0  0  0
    8.2595   -2.2483   -0.3310 O   0  0  0  0  0  0  0  0  0  0  0  0
    6.5710   -3.0589   -1.8461 C   0  0  0  0  0  0  0  0  0  0  0  0
    5.2331   -3.4998   -1.9964 C   0  0  0  0  0  0  0  0  0  0  0  0
    4.6023   -4.1595   -0.9149 C   0  0  0  0  0  0  0  0  0  0  0  0
    5.4078   -4.4556    0.1885 C   0  0  0  0  0  0  0  0  0  0  0  0
    5.0058   -5.4915    1.2709 C   0  0  1  0  0  0  0  0  0  0  0  0
    4.5608   -4.8102    2.5873 C   0  0  1  0  0  0  0  0  0  0  0  0
    3.8682   -6.3256    0.8452 N   0  0  0  0  0  0  0  0  0  0  0  0
    3.6566   -7.6000    1.5478 C   0  0  0  0  0  0  0  0  0  0  0  0
    2.1420   -7.8247    1.6894 C   0  0  1  0  0  0  0  0  0  0  0  0
    1.8136   -8.3824    2.9551 O   0  0  0  0  0  0  0  0  0  0  0  0
    0.8116   -7.5849    3.5704 C   0  0  0  0  0  0  0  0  0  0  0  0
    1.1640   -6.1777    3.1093 C   0  0  0  0  0  0  0  0  0  0  0  0
    1.5431   -6.4196    1.6513 C   0  0  1  0  0  0  0  0  0  0  0  0
    2.6089   -5.5798    0.9043 C   0  0  1  0  0  0  0  0  0  0  0  0
    2.8022   -4.0153    1.0531 C   0  0  2  0  0  0  0  0  0  0  0  0
    3.2211   -3.6650   -0.4202 C   0  0  0  0  0  0  0  0  0  0  0  0
    8.8521   -5.7442    5.0159 H   0  0  0  0  0  0  0  0  0  0  0  0
    9.1978   -6.7345    3.4858 H   0  0  0  0  0  0  0  0  0  0  0  0
    6.9764   -6.8068    2.8661 H   0  0  0  0  0  0  0  0  0  0  0  0
    5.3179   -6.3752    4.7669 H   0  0  0  0  0  0  0  0  0  0  0  0
    6.4161   -5.2088    5.4526 H   0  0  0  0  0  0  0  0  0  0  0  0
    3.9494   -4.3520    5.3439 H   0  0  0  0  0  0  0  0  0  0  0  0
    4.8589   -2.8929    5.1330 H   0  0  0  0  0  0  0  0  0  0  0  0
    2.3649   -3.7921    3.7964 H   0  0  0  0  0  0  0  0  0  0  0  0
    2.9839   -2.1999    3.7843 H   0  0  0  0  0  0  0  0  0  0  0  0
    4.6229   -1.9448    0.8692 H   0  0  0  0  0  0  0  0  0  0  0  0
    4.0953   -0.6042    2.8374 H   0  0  0  0  0  0  0  0  0  0  0  0
    5.7224   -0.4212    2.2308 H   0  0  0  0  0  0  0  0  0  0  0  0
    5.4682   -1.3502    3.6819 H   0  0  0  0  0  0  0  0  0  0  0  0
    8.9159   -2.2678   -1.0242 H   0  0  0  0  0  0  0  0  0  0  0  0
    7.0612   -2.5881   -2.6899 H   0  0  0  0  0  0  0  0  0  0  0  0
    4.6760   -3.2330   -2.8769 H   0  0  0  0  0  0  0  0  0  0  0  0
    5.8622   -6.1428    1.3615 H   0  0  0  0  0  0  0  0  0  0  0  0
    3.8875   -5.5107    3.0630 H   0  0  0  0  0  0  0  0  0  0  0  0
    4.1100   -8.4167    0.9876 H   0  0  0  0  0  0  0  0  0  0  0  0
    4.1317   -7.6242    2.5328 H   0  0  0  0  0  0  0  0  0  0  0  0
    1.7370   -8.4353    0.8794 H   0  0  0  0  0  0  0  0  0  0  0  0
   -0.1773   -7.8744    3.2112 H   0  0  0  0  0  0  0  0  0  0  0  0
    0.8380   -7.6924    4.6557 H   0  0  0  0  0  0  0  0  0  0  0  0
    0.3526   -5.4634    3.2405 H   0  0  0  0  0  0  0  0  0  0  0  0
    1.9963   -5.8673    3.7242 H   0  0  0  0  0  0  0  0  0  0  0  0
    0.6237   -6.4418    1.0700 H   0  0  0  0  0  0  0  0  0  0  0  0
    2.2138   -5.7212   -0.1022 H   0  0  0  0  0  0  0  0  0  0  0  0
    1.8286   -3.5614    1.2437 H   0  0  0  0  0  0  0  0  0  0  0  0
    3.1708   -2.5885   -0.5499 H   0  0  0  0  0  0  0  0  0  0  0  0
    2.4843   -4.0255   -1.1344 H   0  0  0  0  0  0  0  0  0  0  0  0
    6.0871   -3.8159    3.4569 H   0  0  0  0  0  0  0  0  0  0  0  0
  1  2  2  0
  1 30  1  0
  1 31  1  0
  2  3  1  0
  2 32  1  0
  3  4  1  0
  3 33  1  0
  3 34  1  0
  4 19  1  0
  4  5  1  0
  4 60  1  6
  5  6  1  0
  5 35  1  0
  5 36  1  0
  7  6  1  1
  6 37  1  0
  6 38  1  0
  7 19  1  0
  7 28  1  0
  7  8  1  0
  8  9  1  0
  8 10  1  0
  8 39  1  6
  9 40  1  0
  9 41  1  0
  9 42  1  0
 10 11  1  0
 11 17  2  0
 11 12  1  0
 12 13  1  0
 12 14  2  0
 13 43  1  0
 14 15  1  0
 14 44  1  0
 15 16  2  0
 15 45  1  0
 16 29  1  0
 16 17  1  0
 17 18  1  0
 18 19  1  0
 18 20  1  0
 18 46  1  1
 19 47  1  1
 20 27  1  0
 20 21  1  0
 21 22  1  0
 21 48  1  0
 21 49  1  0
 22 26  1  0
 22 23  1  0
 22 50  1  6
 23 24  1  0
 24 25  1  0
 24 51  1  0
 24 52  1  0
 25 26  1  0
 25 53  1  0
 25 54  1  0
 26 27  1  0
 26 55  1  6
 27 28  1  0
 27 56  1  6
 28 29  1  0
 28 57  1  1
 29 58  1  0
 29 59  1  0
M  CHG  1   4   1
M  END
>  <i_m_ct_stereo_status>  (81) 
1

>  <s_m_source_file>  (81) 
/var/tmp/pbs.5076255.sched01/tmpuvpulguu/0mmv31ww_.sdf

>  <i_m_source_file_index>  (81) 
42

>  <i_lp_mmshare_version>  (81) 
48012

>  <i_f3d_flags>  (81) 
0

>  <s_epik_input>  (81) 
W0NIMl09W0NIXVtDSDJdTihbQ0gyXVtDSDJdMSlbQ0BASF0oW0NAQF0xMjMpW0NAQEhdNGM1YyhPW0NAQEhdMltDSDNdKWMoW09IXSlbY0hdW2NIXWM1W0NIMl1bQ0BIXTNbQ0BIXTZONFtDSDJdW0NAQEhdN1tDQEhdNltDSDJdW0NIMl1PNw==

>  <s_epik_cmdline>  (81) 
J2VwaWtfcHl0aG9uJywgJy1waHQnLCAnMi4wJywgJy1waCcsICc3LjAnLCAnLXRuJywgJzgnLCAnLW1hJywgJzIwMCcsICctaW1hZScsICc8aW5maWxlLm1hZT4nLCAnLW9tYWUnLCAnPG91dGZpbGUubWFlPic=

>  <r_lp_tautomer_probability>  (81) 
1

>  <r_epik_Ionization_Penalty>  (81) 
0.0487019

>  <r_epik_Ionization_Penalty_Charging>  (81) 
0.0397466

>  <r_epik_Ionization_Penalty_Neutral>  (81) 
0.00895528

>  <r_epik_State_Penalty>  (81) 
0.216932

>  <r_epik_Charging_Adjusted_Penalty>  (81) 
0.256679

>  <i_epik_Tot_Q>  (81) 
1

>  <i_epik_Tot_abs_Q>  (81) 
1

>  <s_lp_Force_Field>  (81) 
OPLS3e

>  <r_lp_Energy>  (81) 
166.018

>  <b_lp_Chiralities_Consistent>  (81) 
1

>  <s_lp_Variant>  (81) 
28:0-1

>  <s_i_glide_gridfile>  (81) 
pfpi4k_grid

>  <i_i_glide_lignum>  (81) 
42

>  <i_i_glide_rotatable_bonds>  (81) 
3

>  <r_i_docking_score>  (81) 
-3.47458

>  <r_i_glide_ligand_efficiency>  (81) 
-0.119813

>  <r_i_glide_ligand_efficiency_sa>  (81) 
-0.368104

>  <r_i_glide_ligand_efficiency_ln>  (81) 
-0.79559

>  <r_i_glide_gscore>  (81) 
-3.47458

>  <r_i_glide_lipo>  (81) 
-0.636371

>  <r_i_glide_hbond>  (81) 
0

>  <r_i_glide_metal>  (81) 
-0

>  <r_i_glide_rewards>  (81) 
-1.2124

>  <r_i_glide_evdw>  (81) 
-28.5777

>  <r_i_glide_ecoul>  (81) 
-2.47958

>  <r_i_glide_erotb>  (81) 
0.175015

>  <r_i_glide_esite>  (81) 
0

>  <r_i_glide_emodel>  (81) 
-41.0898

>  <r_i_glide_energy>  (81) 
-31.0573

>  <r_i_glide_einternal>  (81) 
2.0943

>  <r_i_glide_intrahb_reward>  (81) 
-0.5

>  <i_i_glide_confnum>  (81) 
5

>  <i_i_glide_posenum>  (81) 
31

>  <r_i_glide_eff_state_penalty>  (81) 
0

>  <ligand_id>  (81) 
28

>  <original_smiles>  (81) 
C=CCN1CCC23C(C)Oc4c(O)ccc5c4C(C12)N1CC2OCCC2C1C3C5

>  <smiles>  (81) 
[H]Oc1c([H])c([H])c2c3c1OC([H])(C([H])([H])[H])C14C([H])([H])C([H])([H])[N+]([H])(C([H])([H])C([H])=C([H])[H])C1([H])C3([H])N1C([H])([H])C3([H])OC([H])([H])C([H])([H])C3([H])C1([H])C4([H])C2([H])[H]

$$$$
28:0:1
     RDKit          3D

 60 66  0  0  1  0  0  0  0  0999 V2000
    2.3322   -1.6617    1.7769 C   0  0  0  0  0  0  0  0  0  0  0  0
    2.6182   -2.1255    2.9988 C   0  0  0  0  0  0  0  0  0  0  0  0
    1.7138   -3.0147    3.8414 C   0  0  0  0  0  0  0  0  0  0  0  0
    2.3739   -4.2622    4.3129 N   0  0  2  0  0  0  0  0  0  0  0  0
    3.5716   -4.0820    5.1879 C   0  0  0  0  0  0  0  0  0  0  0  0
    4.5145   -5.2845    4.8909 C   0  0  0  0  0  0  0  0  0  0  0  0
    3.6472   -6.2728    4.0782 C   0  0  1  0  0  0  0  0  0  0  0  0
    2.6493   -7.0450    5.0846 C   0  0  1  0  0  0  0  0  0  0  0  0
    2.8535   -6.9030    6.6070 C   0  0  0  0  0  0  0  0  0  0  0  0
    1.2430   -6.7230    4.8764 O   0  0  0  0  0  0  0  0  0  0  0  0
    0.7539   -7.3752    3.7740 C   0  0  0  0  0  0  0  0  0  0  0  0
   -0.0385   -8.5386    3.9089 C   0  0  0  0  0  0  0  0  0  0  0  0
   -0.9827   -8.6572    4.8921 O   0  0  0  0  0  0  0  0  0  0  0  0
    0.2349   -9.6714    3.1192 C   0  0  0  0  0  0  0  0  0  0  0  0
    1.4480   -9.6997    2.3941 C   0  0  0  0  0  0  0  0  0  0  0  0
    2.1889   -8.5166    2.2037 C   0  0  0  0  0  0  0  0  0  0  0  0
    1.5734   -7.3177    2.6349 C   0  0  0  0  0  0  0  0  0  0  0  0
    2.0707   -5.9113    2.2002 C   0  0  1  0  0  0  0  0  0  0  0  0
    2.8800   -5.2155    3.3128 C   0  0  1  0  0  0  0  0  0  0  0  0
    2.9810   -6.0130    1.0335 N   0  0  0  0  0  0  0  0  0  0  0  0
    3.1924   -4.8121    0.2179 C   0  0  0  0  0  0  0  0  0  0  0  0
    4.6739   -4.7591   -0.2067 C   0  0  1  0  0  0  0  0  0  0  0  0
    5.1848   -3.4257   -0.1593 O   0  0  0  0  0  0  0  0  0  0  0  0
    6.3689   -3.4083    0.6265 C   0  0  0  0  0  0  0  0  0  0  0  0
    6.0988   -4.4701    1.6839 C   0  0  0  0  0  0  0  0  0  0  0  0
    5.4081   -5.5546    0.8680 C   0  0  1  0  0  0  0  0  0  0  0  0
    4.3119   -6.4892    1.4408 C   0  0  1  0  0  0  0  0  0  0  0  0
    4.3573   -7.1305    2.8897 C   0  0  2  0  0  0  0  0  0  0  0  0
    3.6898   -8.5129    2.5756 C   0  0  0  0  0  0  0  0  0  0  0  0
    1.3945   -1.8629    1.2754 H   0  0  0  0  0  0  0  0  0  0  0  0
    3.0620   -1.0615    1.2475 H   0  0  0  0  0  0  0  0  0  0  0  0
    3.5784   -1.8300    3.4052 H   0  0  0  0  0  0  0  0  0  0  0  0
    1.3773   -2.4372    4.7010 H   0  0  0  0  0  0  0  0  0  0  0  0
    0.8116   -3.2659    3.2867 H   0  0  0  0  0  0  0  0  0  0  0  0
    4.1392   -3.1803    4.9710 H   0  0  0  0  0  0  0  0  0  0  0  0
    3.3034   -3.9898    6.2380 H   0  0  0  0  0  0  0  0  0  0  0  0
    5.3633   -4.9463    4.3023 H   0  0  0  0  0  0  0  0  0  0  0  0
    4.9622   -5.6972    5.7890 H   0  0  0  0  0  0  0  0  0  0  0  0
    2.7906   -8.1164    4.9531 H   0  0  0  0  0  0  0  0  0  0  0  0
    3.8642   -7.1599    6.9240 H   0  0  0  0  0  0  0  0  0  0  0  0
    2.1872   -7.5911    7.1275 H   0  0  0  0  0  0  0  0  0  0  0  0
    2.6062   -5.9082    6.9703 H   0  0  0  0  0  0  0  0  0  0  0  0
   -1.3646   -9.5367    4.9532 H   0  0  0  0  0  0  0  0  0  0  0  0
   -0.3322  -10.5769    3.2446 H   0  0  0  0  0  0  0  0  0  0  0  0
    1.8612  -10.6573    2.0996 H   0  0  0  0  0  0  0  0  0  0  0  0
    1.2024   -5.3174    1.9313 H   0  0  0  0  0  0  0  0  0  0  0  0
    3.5559   -4.5577    2.7886 H   0  0  0  0  0  0  0  0  0  0  0  0
    2.5452   -4.8246   -0.6573 H   0  0  0  0  0  0  0  0  0  0  0  0
    2.9404   -3.9074    0.7617 H   0  0  0  0  0  0  0  0  0  0  0  0
    4.8333   -5.2084   -1.1870 H   0  0  0  0  0  0  0  0  0  0  0  0
    7.2291   -3.6823    0.0149 H   0  0  0  0  0  0  0  0  0  0  0  0
    6.5471   -2.4221    1.0583 H   0  0  0  0  0  0  0  0  0  0  0  0
    7.0045   -4.8162    2.1835 H   0  0  0  0  0  0  0  0  0  0  0  0
    5.4596   -4.0011    2.4172 H   0  0  0  0  0  0  0  0  0  0  0  0
    6.1907   -6.1535    0.4040 H   0  0  0  0  0  0  0  0  0  0  0  0
    4.4843   -7.3234    0.7607 H   0  0  0  0  0  0  0  0  0  0  0  0
    5.3962   -7.3116    3.1559 H   0  0  0  0  0  0  0  0  0  0  0  0
    3.8415   -9.1708    3.4277 H   0  0  0  0  0  0  0  0  0  0  0  0
    4.2207   -9.0389    1.7834 H   0  0  0  0  0  0  0  0  0  0  0  0
    1.6972   -4.7888    4.8637 H   0  0  0  0  0  0  0  0  0  0  0  0
  1  2  2  0
  1 30  1  0
  1 31  1  0
  2  3  1  0
  2 32  1  0
  3  4  1  0
  3 33  1  0
  3 34  1  0
  4 19  1  0
  4  5  1  0
  4 60  1  1
  5  6  1  0
  5 35  1  0
  5 36  1  0
  7  6  1  1
  6 37  1  0
  6 38  1  0
  7 19  1  0
  7 28  1  0
  7  8  1  0
  8  9  1  0
  8 10  1  0
  8 39  1  6
  9 40  1  0
  9 41  1  0
  9 42  1  0
 10 11  1  0
 11 17  2  0
 11 12  1  0
 12 13  1  0
 12 14  2  0
 13 43  1  0
 14 15  1  0
 14 44  1  0
 15 16  2  0
 15 45  1  0
 16 29  1  0
 16 17  1  0
 17 18  1  0
 18 19  1  0
 18 20  1  0
 18 46  1  6
 19 47  1  6
 20 27  1  0
 20 21  1  0
 21 22  1  0
 21 48  1  0
 21 49  1  0
 22 26  1  0
 22 23  1  0
 22 50  1  6
 23 24  1  0
 24 25  1  0
 24 51  1  0
 24 52  1  0
 25 26  1  0
 25 53  1  0
 25 54  1  0
 26 27  1  0
 26 55  1  6
 27 28  1  0
 27 56  1  6
 28 29  1  0
 28 57  1  1
 29 58  1  0
 29 59  1  0
M  CHG  1   4   1
M  END
>  <i_m_ct_stereo_status>  (82) 
1

>  <s_m_source_file>  (82) 
/var/tmp/pbs.5076255.sched01/tmpuvpulguu/0mmv31ww_.sdf

>  <i_m_source_file_index>  (82) 
42

>  <i_lp_mmshare_version>  (82) 
48012

>  <i_f3d_flags>  (82) 
0

>  <s_epik_input>  (82) 
W0NIMl09W0NIXVtDSDJdTihbQ0gyXVtDSDJdMSlbQ0BASF0oW0NAQF0xMjMpW0NAQEhdNGM1YyhPW0NAQEhdMltDSDNdKWMoW09IXSlbY0hdW2NIXWM1W0NIMl1bQ0BIXTNbQ0BIXTZONFtDSDJdW0NAQEhdN1tDQEhdNltDSDJdW0NIMl1PNw==

>  <s_epik_cmdline>  (82) 
J2VwaWtfcHl0aG9uJywgJy1waHQnLCAnMi4wJywgJy1waCcsICc3LjAnLCAnLXRuJywgJzgnLCAnLW1hJywgJzIwMCcsICctaW1hZScsICc8aW5maWxlLm1hZT4nLCAnLW9tYWUnLCAnPG91dGZpbGUubWFlPic=

>  <r_lp_tautomer_probability>  (82) 
1

>  <r_epik_Ionization_Penalty>  (82) 
0.0487019

>  <r_epik_Ionization_Penalty_Charging>  (82) 
0.0397466

>  <r_epik_Ionization_Penalty_Neutral>  (82) 
0.00895528

>  <r_epik_State_Penalty>  (82) 
0.216932

>  <r_epik_Charging_Adjusted_Penalty>  (82) 
0.256679

>  <i_epik_Tot_Q>  (82) 
1

>  <i_epik_Tot_abs_Q>  (82) 
1

>  <s_lp_Force_Field>  (82) 
OPLS3e

>  <r_lp_Energy>  (82) 
166.018

>  <b_lp_Chiralities_Consistent>  (82) 
1

>  <s_lp_Variant>  (82) 
28:0-1

>  <s_i_glide_gridfile>  (82) 
pfpi4k_grid

>  <i_i_glide_lignum>  (82) 
42

>  <i_i_glide_rotatable_bonds>  (82) 
3

>  <r_i_docking_score>  (82) 
-3.14764

>  <r_i_glide_ligand_efficiency>  (82) 
-0.108539

>  <r_i_glide_ligand_efficiency_sa>  (82) 
-0.333467

>  <r_i_glide_ligand_efficiency_ln>  (82) 
-0.720729

>  <r_i_glide_gscore>  (82) 
-3.14764

>  <r_i_glide_lipo>  (82) 
-0.431102

>  <r_i_glide_hbond>  (82) 
0

>  <r_i_glide_metal>  (82) 
-0

>  <r_i_glide_rewards>  (82) 
-0.712401

>  <r_i_glide_evdw>  (82) 
-23.8729

>  <r_i_glide_ecoul>  (82) 
-7.07009

>  <r_i_glide_erotb>  (82) 
0.250021

>  <r_i_glide_esite>  (82) 
0

>  <r_i_glide_emodel>  (82) 
-36.0936

>  <r_i_glide_energy>  (82) 
-30.9429

>  <r_i_glide_einternal>  (82) 
1.79194

>  <r_i_glide_intrahb_reward>  (82) 
-0

>  <i_i_glide_confnum>  (82) 
4

>  <i_i_glide_posenum>  (82) 
16

>  <r_i_glide_eff_state_penalty>  (82) 
0

>  <ligand_id>  (82) 
28

>  <original_smiles>  (82) 
C=CCN1CCC23C(C)Oc4c(O)ccc5c4C(C12)N1CC2OCCC2C1C3C5

>  <smiles>  (82) 
[H]Oc1c([H])c([H])c2c3c1OC([H])(C([H])([H])[H])C14C([H])([H])C([H])([H])[N+]([H])(C([H])([H])C([H])=C([H])[H])C1([H])C3([H])N1C([H])([H])C3([H])OC([H])([H])C([H])([H])C3([H])C1([H])C4([H])C2([H])[H]

$$$$
28:0:2
     RDKit          3D

 60 66  0  0  1  0  0  0  0  0999 V2000
    9.0863   -6.3793    3.6586 C   0  0  0  0  0  0  0  0  0  0  0  0
    7.7860   -6.5427    3.3782 C   0  0  0  0  0  0  0  0  0  0  0  0
    6.6249   -6.2058    4.3041 C   0  0  0  0  0  0  0  0  0  0  0  0
    5.7702   -5.0927    3.7944 N   0  0  2  0  0  0  0  0  0  0  0  0
    4.8094   -4.5586    4.8162 C   0  0  0  0  0  0  0  0  0  0  0  0
    3.5258   -4.1130    4.0460 C   0  0  0  0  0  0  0  0  0  0  0  0
    3.9326   -4.1767    2.5550 C   0  0  1  0  0  0  0  0  0  0  0  0
    4.8250   -2.8764    2.1921 C   0  0  1  0  0  0  0  0  0  0  0  0
    4.9262   -1.7177    3.2075 C   0  0  0  0  0  0  0  0  0  0  0  0
    6.2070   -3.1805    1.8496 O   0  0  0  0  0  0  0  0  0  0  0  0
    6.3037   -3.7116    0.5934 C   0  0  0  0  0  0  0  0  0  0  0  0
    6.7595   -2.9119   -0.4796 C   0  0  0  0  0  0  0  0  0  0  0  0
    7.7809   -2.0223   -0.3067 O   0  0  0  0  0  0  0  0  0  0  0  0
    6.0599   -2.9150   -1.7015 C   0  0  0  0  0  0  0  0  0  0  0  0
    4.7835   -3.5161   -1.7416 C   0  0  0  0  0  0  0  0  0  0  0  0
    4.3700   -4.3357   -0.6746 C   0  0  0  0  0  0  0  0  0  0  0  0
    5.3546   -4.6890    0.2699 C   0  0  0  0  0  0  0  0  0  0  0  0
    5.1984   -5.8722    1.2580 C   0  0  1  0  0  0  0  0  0  0  0  0
    4.8382   -5.3936    2.6864 C   0  0  1  0  0  0  0  0  0  0  0  0
    4.1070   -6.7844    0.8584 N   0  0  0  0  0  0  0  0  0  0  0  0
    4.1219   -8.1478    1.3988 C   0  0  0  0  0  0  0  0  0  0  0  0
    2.6652   -8.5657    1.6845 C   0  0  1  0  0  0  0  0  0  0  0  0
    2.5654   -9.3016    2.9005 O   0  0  0  0  0  0  0  0  0  0  0  0
    1.5716   -8.7082    3.7232 C   0  0  0  0  0  0  0  0  0  0  0  0
    1.7074   -7.2236    3.4070 C   0  0  0  0  0  0  0  0  0  0  0  0
    1.9179   -7.2492    1.8984 C   0  0  1  0  0  0  0  0  0  0  0  0
    2.7891   -6.2090    1.1507 C   0  0  1  0  0  0  0  0  0  0  0  0
    2.8180   -4.6565    1.4664 C   0  0  2  0  0  0  0  0  0  0  0  0
    3.0107   -4.0923    0.0145 C   0  0  0  0  0  0  0  0  0  0  0  0
    9.4486   -5.9854    4.6011 H   0  0  0  0  0  0  0  0  0  0  0  0
    9.8173   -6.6622    2.9116 H   0  0  0  0  0  0  0  0  0  0  0  0
    7.5615   -6.9648    2.4146 H   0  0  0  0  0  0  0  0  0  0  0  0
    6.0370   -7.1022    4.4746 H   0  0  0  0  0  0  0  0  0  0  0  0
    7.0340   -5.9099    5.2708 H   0  0  0  0  0  0  0  0  0  0  0  0
    4.5333   -5.3371    5.5265 H   0  0  0  0  0  0  0  0  0  0  0  0
    5.2471   -3.7488    5.4018 H   0  0  0  0  0  0  0  0  0  0  0  0
    2.7090   -4.7992    4.2504 H   0  0  0  0  0  0  0  0  0  0  0  0
    3.1442   -3.1473    4.3679 H   0  0  0  0  0  0  0  0  0  0  0  0
    4.3702   -2.3685    1.3444 H   0  0  0  0  0  0  0  0  0  0  0  0
    3.9505   -1.3374    3.5078 H   0  0  0  0  0  0  0  0  0  0  0  0
    5.4565   -0.8793    2.7526 H   0  0  0  0  0  0  0  0  0  0  0  0
    5.4893   -1.9939    4.0945 H   0  0  0  0  0  0  0  0  0  0  0  0
    8.1852   -2.0855    0.5440 H   0  0  0  0  0  0  0  0  0  0  0  0
    6.3766   -2.2761   -2.5064 H   0  0  0  0  0  0  0  0  0  0  0  0
    4.0843   -3.2167   -2.5114 H   0  0  0  0  0  0  0  0  0  0  0  0
    6.1234   -6.4263    1.2042 H   0  0  0  0  0  0  0  0  0  0  0  0
    4.3174   -6.2251    3.1458 H   0  0  0  0  0  0  0  0  0  0  0  0
    4.5843   -8.8370    0.6901 H   0  0  0  0  0  0  0  0  0  0  0  0
    4.7087   -8.2174    2.3146 H   0  0  0  0  0  0  0  0  0  0  0  0
    2.2297   -9.1284    0.8590 H   0  0  0  0  0  0  0  0  0  0  0  0
    0.5821   -9.0778    3.4503 H   0  0  0  0  0  0  0  0  0  0  0  0
    1.7476   -8.9320    4.7753 H   0  0  0  0  0  0  0  0  0  0  0  0
    0.8404   -6.6394    3.7123 H   0  0  0  0  0  0  0  0  0  0  0  0
    2.5699   -6.8789    3.9606 H   0  0  0  0  0  0  0  0  0  0  0  0
    0.9375   -7.3140    1.4282 H   0  0  0  0  0  0  0  0  0  0  0  0
    2.2877   -6.2795    0.1858 H   0  0  0  0  0  0  0  0  0  0  0  0
    1.8299   -4.3580    1.8165 H   0  0  0  0  0  0  0  0  0  0  0  0
    2.8241   -3.0187    0.0268 H   0  0  0  0  0  0  0  0  0  0  0  0
    2.2384   -4.4603   -0.6667 H   0  0  0  0  0  0  0  0  0  0  0  0
    6.3532   -4.3182    3.4934 H   0  0  0  0  0  0  0  0  0  0  0  0
  1  2  2  0
  1 30  1  0
  1 31  1  0
  2  3  1  0
  2 32  1  0
  3  4  1  0
  3 33  1  0
  3 34  1  0
  4 19  1  0
  4  5  1  0
  4 60  1  6
  5  6  1  0
  5 35  1  0
  5 36  1  0
  7  6  1  1
  6 37  1  0
  6 38  1  0
  7 19  1  0
  7 28  1  0
  7  8  1  0
  8  9  1  0
  8 10  1  0
  8 39  1  6
  9 40  1  0
  9 41  1  0
  9 42  1  0
 10 11  1  0
 11 17  2  0
 11 12  1  0
 12 13  1  0
 12 14  2  0
 13 43  1  0
 14 15  1  0
 14 44  1  0
 15 16  2  0
 15 45  1  0
 16 29  1  0
 16 17  1  0
 17 18  1  0
 18 19  1  0
 18 20  1  0
 18 46  1  1
 19 47  1  1
 20 27  1  0
 20 21  1  0
 21 22  1  0
 21 48  1  0
 21 49  1  0
 22 26  1  0
 22 23  1  0
 22 50  1  6
 23 24  1  0
 24 25  1  0
 24 51  1  0
 24 52  1  0
 25 26  1  0
 25 53  1  0
 25 54  1  0
 26 27  1  0
 26 55  1  6
 27 28  1  0
 27 56  1  6
 28 29  1  0
 28 57  1  1
 29 58  1  0
 29 59  1  0
M  CHG  1   4   1
M  END
>  <i_m_ct_stereo_status>  (83) 
1

>  <s_m_source_file>  (83) 
/var/tmp/pbs.5076255.sched01/tmpuvpulguu/0mmv31ww_.sdf

>  <i_m_source_file_index>  (83) 
42

>  <i_lp_mmshare_version>  (83) 
48012

>  <i_f3d_flags>  (83) 
0

>  <s_epik_input>  (83) 
W0NIMl09W0NIXVtDSDJdTihbQ0gyXVtDSDJdMSlbQ0BASF0oW0NAQF0xMjMpW0NAQEhdNGM1YyhPW0NAQEhdMltDSDNdKWMoW09IXSlbY0hdW2NIXWM1W0NIMl1bQ0BIXTNbQ0BIXTZONFtDSDJdW0NAQEhdN1tDQEhdNltDSDJdW0NIMl1PNw==

>  <s_epik_cmdline>  (83) 
J2VwaWtfcHl0aG9uJywgJy1waHQnLCAnMi4wJywgJy1waCcsICc3LjAnLCAnLXRuJywgJzgnLCAnLW1hJywgJzIwMCcsICctaW1hZScsICc8aW5maWxlLm1hZT4nLCAnLW9tYWUnLCAnPG91dGZpbGUubWFlPic=

>  <r_lp_tautomer_probability>  (83) 
1

>  <r_epik_Ionization_Penalty>  (83) 
0.0487019

>  <r_epik_Ionization_Penalty_Charging>  (83) 
0.0397466

>  <r_epik_Ionization_Penalty_Neutral>  (83) 
0.00895528

>  <r_epik_State_Penalty>  (83) 
0.216932

>  <r_epik_Charging_Adjusted_Penalty>  (83) 
0.256679

>  <i_epik_Tot_Q>  (83) 
1

>  <i_epik_Tot_abs_Q>  (83) 
1

>  <s_lp_Force_Field>  (83) 
OPLS3e

>  <r_lp_Energy>  (83) 
166.018

>  <b_lp_Chiralities_Consistent>  (83) 
1

>  <s_lp_Variant>  (83) 
28:0-1

>  <s_i_glide_gridfile>  (83) 
pfpi4k_grid

>  <i_i_glide_lignum>  (83) 
42

>  <i_i_glide_rotatable_bonds>  (83) 
3

>  <r_i_docking_score>  (83) 
-2.64191

>  <r_i_glide_ligand_efficiency>  (83) 
-0.0911003

>  <r_i_glide_ligand_efficiency_sa>  (83) 
-0.279889

>  <r_i_glide_ligand_efficiency_ln>  (83) 
-0.60493

>  <r_i_glide_gscore>  (83) 
-2.64191

>  <r_i_glide_lipo>  (83) 
-0.440676

>  <r_i_glide_hbond>  (83) 
0

>  <r_i_glide_metal>  (83) 
-0

>  <r_i_glide_rewards>  (83) 
-0.712401

>  <r_i_glide_evdw>  (83) 
-27.197

>  <r_i_glide_ecoul>  (83) 
-2.52667

>  <r_i_glide_erotb>  (83) 
0.250021

>  <r_i_glide_esite>  (83) 
0

>  <r_i_glide_emodel>  (83) 
-34.3574

>  <r_i_glide_energy>  (83) 
-29.7237

>  <r_i_glide_einternal>  (83) 
0.640271

>  <r_i_glide_intrahb_reward>  (83) 
-0

>  <i_i_glide_confnum>  (83) 
5

>  <i_i_glide_posenum>  (83) 
1

>  <r_i_glide_eff_state_penalty>  (83) 
0

>  <ligand_id>  (83) 
28

>  <original_smiles>  (83) 
C=CCN1CCC23C(C)Oc4c(O)ccc5c4C(C12)N1CC2OCCC2C1C3C5

>  <smiles>  (83) 
[H]Oc1c([H])c([H])c2c3c1OC([H])(C([H])([H])[H])C14C([H])([H])C([H])([H])[N+]([H])(C([H])([H])C([H])=C([H])[H])C1([H])C3([H])N1C([H])([H])C3([H])OC([H])([H])C([H])([H])C3([H])C1([H])C4([H])C2([H])[H]

$$$$
28:1:0
     RDKit          3D

 60 66  0  0  1  0  0  0  0  0999 V2000
    4.6966   -0.1803    2.7629 C   0  0  0  0  0  0  0  0  0  0  0  0
    5.7432   -1.0177    2.7778 C   0  0  0  0  0  0  0  0  0  0  0  0
    6.6976   -1.1874    1.6106 C   0  0  0  0  0  0  0  0  0  0  0  0
    6.9425   -2.5672    1.2724 N   0  0  0  0  0  0  0  0  0  0  0  0
    7.8832   -2.6741    0.1460 C   0  0  0  0  0  0  0  0  0  0  0  0
    7.4692   -3.9412   -0.6086 C   0  0  0  0  0  0  0  0  0  0  0  0
    6.3658   -4.6061    0.2334 C   0  0  1  0  0  0  0  0  0  0  0  0
    7.0207   -5.4923    1.4191 C   0  0  1  0  0  0  0  0  0  0  0  0
    8.5553   -5.6401    1.4722 C   0  0  0  0  0  0  0  0  0  0  0  0
    6.7115   -5.0661    2.7679 O   0  0  0  0  0  0  0  0  0  0  0  0
    5.4051   -5.2753    3.1283 C   0  0  0  0  0  0  0  0  0  0  0  0
    5.1210   -6.3073    4.0436 C   0  0  0  0  0  0  0  0  0  0  0  0
    5.9623   -6.5418    5.0916 O   0  0  0  0  0  0  0  0  0  0  0  0
    4.0640   -7.1893    3.7725 C   0  0  0  0  0  0  0  0  0  0  0  0
    3.4723   -7.1595    2.4920 C   0  0  0  0  0  0  0  0  0  0  0  0
    3.7522   -6.0826    1.6207 C   0  0  0  0  0  0  0  0  0  0  0  0
    4.4284   -4.9897    2.1739 C   0  0  0  0  0  0  0  0  0  0  0  0
    4.4732   -3.5997    1.4839 C   0  0  1  0  0  0  0  0  0  0  0  0
    5.8042   -3.3104    0.7758 C   0  0  1  0  0  0  0  0  0  0  0  0
    3.4541   -3.5050    0.4054 N   0  0  1  0  0  0  0  0  0  0  0  0
    3.0505   -2.1496   -0.0480 C   0  0  0  0  0  0  0  0  0  0  0  0
    2.8531   -2.2274   -1.5885 C   0  0  1  0  0  0  0  0  0  0  0  0
    3.3127   -1.0429   -2.2359 O   0  0  0  0  0  0  0  0  0  0  0  0
    4.2166   -1.3757   -3.2683 C   0  0  0  0  0  0  0  0  0  0  0  0
    4.9317   -2.5865   -2.6880 C   0  0  0  0  0  0  0  0  0  0  0  0
    3.7636   -3.3462   -2.0562 C   0  0  1  0  0  0  0  0  0  0  0  0
    3.8712   -4.2530   -0.8097 C   0  0  1  0  0  0  0  0  0  0  0  0
    5.0772   -5.2270   -0.5318 C   0  0  2  0  0  0  0  0  0  0  0  0
    4.3586   -6.3799    0.2338 C   0  0  0  0  0  0  0  0  0  0  0  0
    4.4954    0.4362    1.8996 H   0  0  0  0  0  0  0  0  0  0  0  0
    4.0380   -0.1056    3.6139 H   0  0  0  0  0  0  0  0  0  0  0  0
    5.9153   -1.6121    3.6580 H   0  0  0  0  0  0  0  0  0  0  0  0
    6.3597   -0.6033    0.7519 H   0  0  0  0  0  0  0  0  0  0  0  0
    7.6570   -0.7815    1.8864 H   0  0  0  0  0  0  0  0  0  0  0  0
    7.8051   -1.8335   -0.5314 H   0  0  0  0  0  0  0  0  0  0  0  0
    8.9145   -2.7267    0.4808 H   0  0  0  0  0  0  0  0  0  0  0  0
    7.1110   -3.6947   -1.6081 H   0  0  0  0  0  0  0  0  0  0  0  0
    8.3493   -4.5613   -0.7556 H   0  0  0  0  0  0  0  0  0  0  0  0
    6.6891   -6.5164    1.3323 H   0  0  0  0  0  0  0  0  0  0  0  0
    8.9565   -6.1132    0.5783 H   0  0  0  0  0  0  0  0  0  0  0  0
    8.8390   -6.2827    2.3071 H   0  0  0  0  0  0  0  0  0  0  0  0
    9.0576   -4.6860    1.6376 H   0  0  0  0  0  0  0  0  0  0  0  0
    5.7451   -7.3340    5.5727 H   0  0  0  0  0  0  0  0  0  0  0  0
    3.8817   -8.0258    4.4295 H   0  0  0  0  0  0  0  0  0  0  0  0
    2.9794   -8.0517    2.1331 H   0  0  0  0  0  0  0  0  0  0  0  0
    4.1881   -2.8800    2.2396 H   0  0  0  0  0  0  0  0  0  0  0  0
    5.5512   -2.6311   -0.0401 H   0  0  0  0  0  0  0  0  0  0  0  0
    2.1701   -1.8606    0.5102 H   0  0  0  0  0  0  0  0  0  0  0  0
    3.7998   -1.3947    0.1932 H   0  0  0  0  0  0  0  0  0  0  0  0
    1.8354   -2.4883   -1.9106 H   0  0  0  0  0  0  0  0  0  0  0  0
    3.6879   -1.6166   -4.1910 H   0  0  0  0  0  0  0  0  0  0  0  0
    4.8875   -0.5444   -3.4531 H   0  0  0  0  0  0  0  0  0  0  0  0
    5.4661   -3.1705   -3.4389 H   0  0  0  0  0  0  0  0  0  0  0  0
    5.6401   -2.1934   -1.9662 H   0  0  0  0  0  0  0  0  0  0  0  0
    3.2563   -3.8612   -2.8664 H   0  0  0  0  0  0  0  0  0  0  0  0
    2.9481   -4.8222   -0.9076 H   0  0  0  0  0  0  0  0  0  0  0  0
    5.3822   -5.5934   -1.5021 H   0  0  0  0  0  0  0  0  0  0  0  0
    5.0077   -7.2520    0.3044 H   0  0  0  0  0  0  0  0  0  0  0  0
    3.5157   -6.7091   -0.3444 H   0  0  0  0  0  0  0  0  0  0  0  0
    2.6385   -3.9540    0.7656 H   0  0  0  0  0  0  0  0  0  0  0  0
  1  2  2  0
  1 30  1  0
  1 31  1  0
  2  3  1  0
  2 32  1  0
  3  4  1  0
  3 33  1  0
  3 34  1  0
  4 19  1  0
  4  5  1  0
  5  6  1  0
  5 35  1  0
  5 36  1  0
  7  6  1  6
  6 37  1  0
  6 38  1  0
  7 19  1  0
  7 28  1  0
  7  8  1  0
  8  9  1  0
  8 10  1  0
  8 39  1  1
  9 40  1  0
  9 41  1  0
  9 42  1  0
 10 11  1  0
 11 17  2  0
 11 12  1  0
 12 13  1  0
 12 14  2  0
 13 43  1  0
 14 15  1  0
 14 44  1  0
 15 16  2  0
 15 45  1  0
 16 29  1  0
 16 17  1  0
 17 18  1  0
 18 19  1  0
 18 20  1  0
 18 46  1  1
 19 47  1  6
 20 27  1  0
 20 21  1  0
 20 60  1  1
 21 22  1  0
 21 48  1  0
 21 49  1  0
 22 26  1  0
 22 23  1  0
 22 50  1  1
 23 24  1  0
 24 25  1  0
 24 51  1  0
 24 52  1  0
 25 26  1  0
 25 53  1  0
 25 54  1  0
 26 27  1  0
 26 55  1  6
 27 28  1  0
 27 56  1  6
 28 29  1  0
 28 57  1  6
 29 58  1  0
 29 59  1  0
M  CHG  1  20   1
M  END
>  <i_m_ct_stereo_status>  (84) 
1

>  <s_m_source_file>  (84) 
/var/tmp/pbs.5076255.sched01/tmpuvpulguu/0mmv31ww_.sdf

>  <i_m_source_file_index>  (84) 
43

>  <i_lp_mmshare_version>  (84) 
48012

>  <i_f3d_flags>  (84) 
0

>  <s_epik_input>  (84) 
W0NIMl09W0NIXVtDSDJdTihbQ0gyXVtDSDJdMSlbQ0BASF0oW0NAQF0xMjMpW0NAQEhdNGM1YyhPW0NAQEhdMltDSDNdKWMoW09IXSlbY0hdW2NIXWM1W0NIMl1bQ0BIXTNbQ0BIXTZONFtDSDJdW0NAQEhdN1tDQEhdNltDSDJdW0NIMl1PNw==

>  <s_epik_cmdline>  (84) 
J2VwaWtfcHl0aG9uJywgJy1waHQnLCAnMi4wJywgJy1waCcsICc3LjAnLCAnLXRuJywgJzgnLCAnLW1hJywgJzIwMCcsICctaW1hZScsICc8aW5maWxlLm1hZT4nLCAnLW9tYWUnLCAnPG91dGZpbGUubWFlPic=

>  <r_epik_Ionization_Penalty>  (84) 
0.104058

>  <r_epik_Ionization_Penalty_Charging>  (84) 
0.0930644

>  <r_epik_Ionization_Penalty_Neutral>  (84) 
0.0109938

>  <r_epik_State_Penalty>  (84) 
0.783791

>  <r_epik_Charging_Adjusted_Penalty>  (84) 
0.876856

>  <i_epik_Tot_Q>  (84) 
1

>  <i_epik_Tot_abs_Q>  (84) 
1

>  <s_lp_Force_Field>  (84) 
OPLS3e

>  <r_lp_Energy>  (84) 
156.614

>  <b_lp_Chiralities_Consistent>  (84) 
1

>  <s_lp_Variant>  (84) 
28:0-2

>  <s_i_glide_gridfile>  (84) 
pfpi4k_grid

>  <i_i_glide_lignum>  (84) 
43

>  <i_i_glide_rotatable_bonds>  (84) 
3

>  <r_i_docking_score>  (84) 
-2.87185

>  <r_i_glide_ligand_efficiency>  (84) 
-0.0990292

>  <r_i_glide_ligand_efficiency_sa>  (84) 
-0.304249

>  <r_i_glide_ligand_efficiency_ln>  (84) 
-0.65758

>  <r_i_glide_gscore>  (84) 
-2.87185

>  <r_i_glide_lipo>  (84) 
-1.15187

>  <r_i_glide_hbond>  (84) 
0

>  <r_i_glide_metal>  (84) 
-0

>  <r_i_glide_rewards>  (84) 
-0.712401

>  <r_i_glide_evdw>  (84) 
-11.3486

>  <r_i_glide_ecoul>  (84) 
-4.5683

>  <r_i_glide_erotb>  (84) 
0.250021

>  <r_i_glide_esite>  (84) 
-0.0049256

>  <r_i_glide_emodel>  (84) 
-15.4201

>  <r_i_glide_energy>  (84) 
-15.9169

>  <r_i_glide_einternal>  (84) 
2.87222

>  <r_i_glide_intrahb_reward>  (84) 
-0

>  <i_i_glide_confnum>  (84) 
3

>  <i_i_glide_posenum>  (84) 
27

>  <r_i_glide_eff_state_penalty>  (84) 
0

>  <ligand_id>  (84) 
28

>  <original_smiles>  (84) 
C=CCN1CCC23C(C)Oc4c(O)ccc5c4C(C12)N1CC2OCCC2C1C3C5

>  <smiles>  (84) 
[H]Oc1c([H])c([H])c2c3c1OC([H])(C([H])([H])[H])C14C([H])([H])C([H])([H])N(C([H])([H])C([H])=C([H])[H])C1([H])C3([H])[N+]1([H])C([H])([H])C3([H])OC([H])([H])C([H])([H])C3([H])C1([H])C4([H])C2([H])[H]

$$$$
28:1:1
     RDKit          3D

 60 66  0  0  1  0  0  0  0  0999 V2000
    5.5585   -0.1633    4.2395 C   0  0  0  0  0  0  0  0  0  0  0  0
    5.3778   -1.0192    3.2240 C   0  0  0  0  0  0  0  0  0  0  0  0
    6.2597   -1.2180    1.9873 C   0  0  0  0  0  0  0  0  0  0  0  0
    6.5629   -2.6172    1.6734 N   0  0  0  0  0  0  0  0  0  0  0  0
    7.5568   -2.7206    0.5891 C   0  0  0  0  0  0  0  0  0  0  0  0
    7.2495   -4.0357   -0.1721 C   0  0  0  0  0  0  0  0  0  0  0  0
    6.1309   -4.6965    0.6374 C   0  0  1  0  0  0  0  0  0  0  0  0
    6.7473   -5.5118    1.8908 C   0  0  1  0  0  0  0  0  0  0  0  0
    8.2806   -5.6155    2.0299 C   0  0  0  0  0  0  0  0  0  0  0  0
    6.3266   -5.0416    3.1927 O   0  0  0  0  0  0  0  0  0  0  0  0
    5.0229   -5.3419    3.4723 C   0  0  0  0  0  0  0  0  0  0  0  0
    4.7228   -6.3757    4.3933 C   0  0  0  0  0  0  0  0  0  0  0  0
    5.5017   -6.5606    5.5001 O   0  0  0  0  0  0  0  0  0  0  0  0
    3.7269   -7.3151    4.0753 C   0  0  0  0  0  0  0  0  0  0  0  0
    3.2217   -7.3485    2.7530 C   0  0  0  0  0  0  0  0  0  0  0  0
    3.4840   -6.2856    1.8677 C   0  0  0  0  0  0  0  0  0  0  0  0
    4.1085   -5.1588    2.4307 C   0  0  0  0  0  0  0  0  0  0  0  0
    4.1051   -3.7941    1.7098 C   0  0  1  0  0  0  0  0  0  0  0  0
    5.4854   -3.4099    1.1093 C   0  0  1  0  0  0  0  0  0  0  0  0
    3.1878   -3.7524    0.5667 N   0  0  1  0  0  0  0  0  0  0  0  0
    2.7661   -2.4223    0.0894 C   0  0  0  0  0  0  0  0  0  0  0  0
    2.6515   -2.4875   -1.4550 C   0  0  1  0  0  0  0  0  0  0  0  0
    3.0928   -1.2888   -2.1098 O   0  0  0  0  0  0  0  0  0  0  0  0
    4.0890   -1.6031   -3.0640 C   0  0  0  0  0  0  0  0  0  0  0  0
    4.8084   -2.7738   -2.4109 C   0  0  0  0  0  0  0  0  0  0  0  0
    3.6392   -3.5651   -1.8375 C   0  0  1  0  0  0  0  0  0  0  0  0
    3.7041   -4.4876   -0.5891 C   0  0  1  0  0  0  0  0  0  0  0  0
    4.9389   -5.3955   -0.2058 C   0  0  2  0  0  0  0  0  0  0  0  0
    4.2274   -6.5740    0.5469 C   0  0  0  0  0  0  0  0  0  0  0  0
    6.3888    0.5059    4.3141 H   0  0  0  0  0  0  0  0  0  0  0  0
    4.8036   -0.1697    5.0061 H   0  0  0  0  0  0  0  0  0  0  0  0
    4.4580   -1.5976    3.3414 H   0  0  0  0  0  0  0  0  0  0  0  0
    5.8098   -0.7200    1.1319 H   0  0  0  0  0  0  0  0  0  0  0  0
    7.2058   -0.7397    2.1833 H   0  0  0  0  0  0  0  0  0  0  0  0
    7.4893   -1.8795   -0.1051 H   0  0  0  0  0  0  0  0  0  0  0  0
    8.5870   -2.7296    0.9466 H   0  0  0  0  0  0  0  0  0  0  0  0
    6.9319   -3.8107   -1.1879 H   0  0  0  0  0  0  0  0  0  0  0  0
    8.1380   -4.6504   -0.3060 H   0  0  0  0  0  0  0  0  0  0  0  0
    6.4598   -6.5558    1.8159 H   0  0  0  0  0  0  0  0  0  0  0  0
    8.7521   -6.0930    1.1706 H   0  0  0  0  0  0  0  0  0  0  0  0
    8.5357   -6.2287    2.8958 H   0  0  0  0  0  0  0  0  0  0  0  0
    8.7538   -4.6494    2.1952 H   0  0  0  0  0  0  0  0  0  0  0  0
    5.2679   -7.3354    5.9960 H   0  0  0  0  0  0  0  0  0  0  0  0
    3.5287   -8.1412    4.7430 H   0  0  0  0  0  0  0  0  0  0  0  0
    2.7754   -8.2632    2.3933 H   0  0  0  0  0  0  0  0  0  0  0  0
    3.6072   -3.1261    2.4075 H   0  0  0  0  0  0  0  0  0  0  0  0
    5.2573   -2.7618    0.2738 H   0  0  0  0  0  0  0  0  0  0  0  0
    1.8272   -2.2143    0.5851 H   0  0  0  0  0  0  0  0  0  0  0  0
    3.4220   -1.5977    0.3748 H   0  0  0  0  0  0  0  0  0  0  0  0
    1.6510   -2.7729   -1.8064 H   0  0  0  0  0  0  0  0  0  0  0  0
    3.6340   -1.8936   -4.0109 H   0  0  0  0  0  0  0  0  0  0  0  0
    4.7403   -0.7488   -3.2277 H   0  0  0  0  0  0  0  0  0  0  0  0
    5.4061   -3.3594   -3.1131 H   0  0  0  0  0  0  0  0  0  0  0  0
    5.4508   -2.3510   -1.6525 H   0  0  0  0  0  0  0  0  0  0  0  0
    3.2111   -4.0779   -2.6912 H   0  0  0  0  0  0  0  0  0  0  0  0
    2.8225   -5.1067   -0.7118 H   0  0  0  0  0  0  0  0  0  0  0  0
    5.3448   -5.8095   -1.1261 H   0  0  0  0  0  0  0  0  0  0  0  0
    4.9177   -7.4070    0.6682 H   0  0  0  0  0  0  0  0  0  0  0  0
    3.4483   -6.9900   -0.0562 H   0  0  0  0  0  0  0  0  0  0  0  0
    2.3632   -4.2018    0.8940 H   0  0  0  0  0  0  0  0  0  0  0  0
  1  2  2  0
  1 30  1  0
  1 31  1  0
  2  3  1  0
  2 32  1  0
  3  4  1  0
  3 33  1  0
  3 34  1  0
  4 19  1  0
  4  5  1  0
  5  6  1  0
  5 35  1  0
  5 36  1  0
  7  6  1  6
  6 37  1  0
  6 38  1  0
  7 19  1  0
  7 28  1  0
  7  8  1  0
  8  9  1  0
  8 10  1  0
  8 39  1  6
  9 40  1  0
  9 41  1  0
  9 42  1  0
 10 11  1  0
 11 17  2  0
 11 12  1  0
 12 13  1  0
 12 14  2  0
 13 43  1  0
 14 15  1  0
 14 44  1  0
 15 16  2  0
 15 45  1  0
 16 29  1  0
 16 17  1  0
 17 18  1  0
 18 19  1  0
 18 20  1  0
 18 46  1  1
 19 47  1  6
 20 27  1  0
 20 21  1  0
 20 60  1  1
 21 22  1  0
 21 48  1  0
 21 49  1  0
 22 26  1  0
 22 23  1  0
 22 50  1  1
 23 24  1  0
 24 25  1  0
 24 51  1  0
 24 52  1  0
 25 26  1  0
 25 53  1  0
 25 54  1  0
 26 27  1  0
 26 55  1  6
 27 28  1  0
 27 56  1  6
 28 29  1  0
 28 57  1  6
 29 58  1  0
 29 59  1  0
M  CHG  1  20   1
M  END
>  <i_m_ct_stereo_status>  (85) 
1

>  <s_m_source_file>  (85) 
/var/tmp/pbs.5076255.sched01/tmpuvpulguu/0mmv31ww_.sdf

>  <i_m_source_file_index>  (85) 
43

>  <i_lp_mmshare_version>  (85) 
48012

>  <i_f3d_flags>  (85) 
0

>  <s_epik_input>  (85) 
W0NIMl09W0NIXVtDSDJdTihbQ0gyXVtDSDJdMSlbQ0BASF0oW0NAQF0xMjMpW0NAQEhdNGM1YyhPW0NAQEhdMltDSDNdKWMoW09IXSlbY0hdW2NIXWM1W0NIMl1bQ0BIXTNbQ0BIXTZONFtDSDJdW0NAQEhdN1tDQEhdNltDSDJdW0NIMl1PNw==

>  <s_epik_cmdline>  (85) 
J2VwaWtfcHl0aG9uJywgJy1waHQnLCAnMi4wJywgJy1waCcsICc3LjAnLCAnLXRuJywgJzgnLCAnLW1hJywgJzIwMCcsICctaW1hZScsICc8aW5maWxlLm1hZT4nLCAnLW9tYWUnLCAnPG91dGZpbGUubWFlPic=

>  <r_epik_Ionization_Penalty>  (85) 
0.104058

>  <r_epik_Ionization_Penalty_Charging>  (85) 
0.0930644

>  <r_epik_Ionization_Penalty_Neutral>  (85) 
0.0109938

>  <r_epik_State_Penalty>  (85) 
0.783791

>  <r_epik_Charging_Adjusted_Penalty>  (85) 
0.876856

>  <i_epik_Tot_Q>  (85) 
1

>  <i_epik_Tot_abs_Q>  (85) 
1

>  <s_lp_Force_Field>  (85) 
OPLS3e

>  <r_lp_Energy>  (85) 
156.614

>  <b_lp_Chiralities_Consistent>  (85) 
1

>  <s_lp_Variant>  (85) 
28:0-2

>  <s_i_glide_gridfile>  (85) 
pfpi4k_grid

>  <i_i_glide_lignum>  (85) 
43

>  <i_i_glide_rotatable_bonds>  (85) 
3

>  <r_i_docking_score>  (85) 
-2.85891

>  <r_i_glide_ligand_efficiency>  (85) 
-0.0985832

>  <r_i_glide_ligand_efficiency_sa>  (85) 
-0.302879

>  <r_i_glide_ligand_efficiency_ln>  (85) 
-0.654618

>  <r_i_glide_gscore>  (85) 
-2.85891

>  <r_i_glide_lipo>  (85) 
-1.11339

>  <r_i_glide_hbond>  (85) 
0

>  <r_i_glide_metal>  (85) 
-0

>  <r_i_glide_rewards>  (85) 
-0.712401

>  <r_i_glide_evdw>  (85) 
-11.6663

>  <r_i_glide_ecoul>  (85) 
-4.61077

>  <r_i_glide_erotb>  (85) 
0.250021

>  <r_i_glide_esite>  (85) 
-0.00821806

>  <r_i_glide_emodel>  (85) 
-15.7771

>  <r_i_glide_energy>  (85) 
-16.277

>  <r_i_glide_einternal>  (85) 
1.80357

>  <r_i_glide_intrahb_reward>  (85) 
-0

>  <i_i_glide_confnum>  (85) 
3

>  <i_i_glide_posenum>  (85) 
3

>  <r_i_glide_eff_state_penalty>  (85) 
0

>  <ligand_id>  (85) 
28

>  <original_smiles>  (85) 
C=CCN1CCC23C(C)Oc4c(O)ccc5c4C(C12)N1CC2OCCC2C1C3C5

>  <smiles>  (85) 
[H]Oc1c([H])c([H])c2c3c1OC([H])(C([H])([H])[H])C14C([H])([H])C([H])([H])N(C([H])([H])C([H])=C([H])[H])C1([H])C3([H])[N+]1([H])C([H])([H])C3([H])OC([H])([H])C([H])([H])C3([H])C1([H])C4([H])C2([H])[H]

$$$$
28:1:2
     RDKit          3D

 60 66  0  0  1  0  0  0  0  0999 V2000
    0.0387    0.3425    2.3271 C   0  0  0  0  0  0  0  0  0  0  0  0
    0.9252   -0.4545    1.7245 C   0  0  0  0  0  0  0  0  0  0  0  0
    2.2712    0.0088    1.1978 C   0  0  0  0  0  0  0  0  0  0  0  0
    3.3673   -0.9283    1.4073 N   0  0  0  0  0  0  0  0  0  0  0  0
    4.6643   -0.2637    1.1857 C   0  0  0  0  0  0  0  0  0  0  0  0
    5.6568   -1.3817    0.7787 C   0  0  0  0  0  0  0  0  0  0  0  0
    4.8301   -2.6859    0.8685 C   0  0  1  0  0  0  0  0  0  0  0  0
    4.6830   -3.1929    2.4024 C   0  0  1  0  0  0  0  0  0  0  0  0
    5.4382   -2.4068    3.4637 C   0  0  0  0  0  0  0  0  0  0  0  0
    3.3477   -3.2358    2.9429 O   0  0  0  0  0  0  0  0  0  0  0  0
    2.6424   -4.2764    2.4293 C   0  0  0  0  0  0  0  0  0  0  0  0
    2.4252   -5.4390    3.2173 C   0  0  0  0  0  0  0  0  0  0  0  0
    2.2020   -5.3228    4.5604 O   0  0  0  0  0  0  0  0  0  0  0  0
    2.5678   -6.6902    2.6364 C   0  0  0  0  0  0  0  0  0  0  0  0
    3.1743   -6.7933    1.3563 C   0  0  0  0  0  0  0  0  0  0  0  0
    3.3764   -5.6350    0.5959 C   0  0  0  0  0  0  0  0  0  0  0  0
    2.7262   -4.4573    1.0501 C   0  0  0  0  0  0  0  0  0  0  0  0
    2.5525   -3.2004    0.1355 C   0  0  1  0  0  0  0  0  0  0  0  0
    3.5143   -2.0539    0.4738 C   0  0  1  0  0  0  0  0  0  0  0  0
    2.7784   -3.5853   -1.2912 N   0  0  1  0  0  0  0  0  0  0  0  0
    2.2111   -2.7083   -2.3473 C   0  0  0  0  0  0  0  0  0  0  0  0
    3.1708   -2.6142   -3.5189 C   0  0  1  0  0  0  0  0  0  0  0  0
    3.1739   -1.2706   -4.0005 O   0  0  0  0  0  0  0  0  0  0  0  0
    4.4961   -0.7618   -3.9427 C   0  0  0  0  0  0  0  0  0  0  0  0
    5.0545   -1.4279   -2.6813 C   0  0  0  0  0  0  0  0  0  0  0  0
    4.5197   -2.8301   -2.8255 C   0  0  1  0  0  0  0  0  0  0  0  0
    4.2223   -3.6927   -1.5895 C   0  0  1  0  0  0  0  0  0  0  0  0
    5.1129   -3.7961   -0.2850 C   0  0  2  0  0  0  0  0  0  0  0  0
    4.8081   -5.2746    0.1240 C   0  0  0  0  0  0  0  0  0  0  0  0
    0.2342    1.3983    2.4950 H   0  0  0  0  0  0  0  0  0  0  0  0
   -0.9060   -0.0600    2.6278 H   0  0  0  0  0  0  0  0  0  0  0  0
    0.6661   -1.4860    1.5606 H   0  0  0  0  0  0  0  0  0  0  0  0
    2.1454    0.1377    0.1318 H   0  0  0  0  0  0  0  0  0  0  0  0
    2.4944    1.0372    1.4783 H   0  0  0  0  0  0  0  0  0  0  0  0
    4.6003    0.4783    0.3899 H   0  0  0  0  0  0  0  0  0  0  0  0
    4.9664    0.2446    2.1027 H   0  0  0  0  0  0  0  0  0  0  0  0
    6.0171   -1.2235   -0.2296 H   0  0  0  0  0  0  0  0  0  0  0  0
    6.5733   -1.3588    1.3598 H   0  0  0  0  0  0  0  0  0  0  0  0
    5.1384   -4.1844    2.4796 H   0  0  0  0  0  0  0  0  0  0  0  0
    6.4248   -2.3435    3.0739 H   0  0  0  0  0  0  0  0  0  0  0  0
    5.4524   -2.9342    4.4203 H   0  0  0  0  0  0  0  0  0  0  0  0
    5.0734   -1.3938    3.6259 H   0  0  0  0  0  0  0  0  0  0  0  0
    2.1570   -6.1669    5.0010 H   0  0  0  0  0  0  0  0  0  0  0  0
    2.4450   -7.5914    3.2363 H   0  0  0  0  0  0  0  0  0  0  0  0
    3.6378   -7.7277    1.0875 H   0  0  0  0  0  0  0  0  0  0  0  0
    1.5327   -2.8551    0.1919 H   0  0  0  0  0  0  0  0  0  0  0  0
    3.5956   -1.5088   -0.4546 H   0  0  0  0  0  0  0  0  0  0  0  0
    1.2040   -3.0334   -2.6681 H   0  0  0  0  0  0  0  0  0  0  0  0
    2.2766   -1.6793   -2.0026 H   0  0  0  0  0  0  0  0  0  0  0  0
    2.9823   -3.3339   -4.3178 H   0  0  0  0  0  0  0  0  0  0  0  0
    4.9706   -1.0578   -4.8563 H   0  0  0  0  0  0  0  0  0  0  0  0
    4.5323    0.3391   -3.9057 H   0  0  0  0  0  0  0  0  0  0  0  0
    6.1191   -1.5520   -2.5009 H   0  0  0  0  0  0  0  0  0  0  0  0
    4.6817   -0.8214   -1.8563 H   0  0  0  0  0  0  0  0  0  0  0  0
    5.1681   -3.3671   -3.5135 H   0  0  0  0  0  0  0  0  0  0  0  0
    4.2832   -4.6490   -2.0811 H   0  0  0  0  0  0  0  0  0  0  0  0
    6.1625   -3.7323   -0.5843 H   0  0  0  0  0  0  0  0  0  0  0  0
    5.5059   -5.5778    0.9057 H   0  0  0  0  0  0  0  0  0  0  0  0
    5.0444   -5.9685   -0.6923 H   0  0  0  0  0  0  0  0  0  0  0  0
    2.3904   -4.5015   -1.4181 H   0  0  0  0  0  0  0  0  0  0  0  0
  1  2  2  0
  1 30  1  0
  1 31  1  0
  2  3  1  0
  2 32  1  0
  3  4  1  0
  3 33  1  0
  3 34  1  0
  4 19  1  0
  4  5  1  0
  5  6  1  0
  5 35  1  0
  5 36  1  0
  7  6  1  1
  6 37  1  0
  6 38  1  0
  7 19  1  0
  7 28  1  0
  7  8  1  0
  8  9  1  0
  8 10  1  0
  8 39  1  6
  9 40  1  0
  9 41  1  0
  9 42  1  0
 10 11  1  0
 11 17  2  0
 11 12  1  0
 12 13  1  0
 12 14  2  0
 13 43  1  0
 14 15  1  0
 14 44  1  0
 15 16  2  0
 15 45  1  0
 16 29  1  0
 16 17  1  0
 17 18  1  0
 18 19  1  0
 18 20  1  0
 18 46  1  6
 19 47  1  6
 20 27  1  0
 20 21  1  0
 20 60  1  1
 21 22  1  0
 21 48  1  0
 21 49  1  0
 22 26  1  0
 22 23  1  0
 22 50  1  6
 23 24  1  0
 24 25  1  0
 24 51  1  0
 24 52  1  0
 25 26  1  0
 25 53  1  0
 25 54  1  0
 26 27  1  0
 26 55  1  6
 27 28  1  0
 27 56  1  6
 28 29  1  0
 28 57  1  6
 29 58  1  0
 29 59  1  0
M  CHG  1  20   1
M  END
>  <i_m_ct_stereo_status>  (86) 
1

>  <s_m_source_file>  (86) 
/var/tmp/pbs.5076255.sched01/tmpuvpulguu/0mmv31ww_.sdf

>  <i_m_source_file_index>  (86) 
43

>  <i_lp_mmshare_version>  (86) 
48012

>  <i_f3d_flags>  (86) 
0

>  <s_epik_input>  (86) 
W0NIMl09W0NIXVtDSDJdTihbQ0gyXVtDSDJdMSlbQ0BASF0oW0NAQF0xMjMpW0NAQEhdNGM1YyhPW0NAQEhdMltDSDNdKWMoW09IXSlbY0hdW2NIXWM1W0NIMl1bQ0BIXTNbQ0BIXTZONFtDSDJdW0NAQEhdN1tDQEhdNltDSDJdW0NIMl1PNw==

>  <s_epik_cmdline>  (86) 
J2VwaWtfcHl0aG9uJywgJy1waHQnLCAnMi4wJywgJy1waCcsICc3LjAnLCAnLXRuJywgJzgnLCAnLW1hJywgJzIwMCcsICctaW1hZScsICc8aW5maWxlLm1hZT4nLCAnLW9tYWUnLCAnPG91dGZpbGUubWFlPic=

>  <r_epik_Ionization_Penalty>  (86) 
0.104058

>  <r_epik_Ionization_Penalty_Charging>  (86) 
0.0930644

>  <r_epik_Ionization_Penalty_Neutral>  (86) 
0.0109938

>  <r_epik_State_Penalty>  (86) 
0.783791

>  <r_epik_Charging_Adjusted_Penalty>  (86) 
0.876856

>  <i_epik_Tot_Q>  (86) 
1

>  <i_epik_Tot_abs_Q>  (86) 
1

>  <s_lp_Force_Field>  (86) 
OPLS3e

>  <r_lp_Energy>  (86) 
156.614

>  <b_lp_Chiralities_Consistent>  (86) 
1

>  <s_lp_Variant>  (86) 
28:0-2

>  <s_i_glide_gridfile>  (86) 
pfpi4k_grid

>  <i_i_glide_lignum>  (86) 
43

>  <i_i_glide_rotatable_bonds>  (86) 
3

>  <r_i_docking_score>  (86) 
-2.63899

>  <r_i_glide_ligand_efficiency>  (86) 
-0.0909996

>  <r_i_glide_ligand_efficiency_sa>  (86) 
-0.27958

>  <r_i_glide_ligand_efficiency_ln>  (86) 
-0.604262

>  <r_i_glide_gscore>  (86) 
-2.63899

>  <r_i_glide_lipo>  (86) 
-0.917763

>  <r_i_glide_hbond>  (86) 
0

>  <r_i_glide_metal>  (86) 
-0

>  <r_i_glide_rewards>  (86) 
-0.712401

>  <r_i_glide_evdw>  (86) 
-13.5033

>  <r_i_glide_ecoul>  (86) 
-3.8912

>  <r_i_glide_erotb>  (86) 
0.250021

>  <r_i_glide_esite>  (86) 
0

>  <r_i_glide_emodel>  (86) 
-16.0665

>  <r_i_glide_energy>  (86) 
-17.3945

>  <r_i_glide_einternal>  (86) 
2.14386

>  <r_i_glide_intrahb_reward>  (86) 
-0

>  <i_i_glide_confnum>  (86) 
4

>  <i_i_glide_posenum>  (86) 
5

>  <r_i_glide_eff_state_penalty>  (86) 
0

>  <ligand_id>  (86) 
28

>  <original_smiles>  (86) 
C=CCN1CCC23C(C)Oc4c(O)ccc5c4C(C12)N1CC2OCCC2C1C3C5

>  <smiles>  (86) 
[H]Oc1c([H])c([H])c2c3c1OC([H])(C([H])([H])[H])C14C([H])([H])C([H])([H])N(C([H])([H])C([H])=C([H])[H])C1([H])C3([H])[N+]1([H])C([H])([H])C3([H])OC([H])([H])C([H])([H])C3([H])C1([H])C4([H])C2([H])[H]

$$$$
28:2:0
     RDKit          3D

 59 65  0  0  1  0  0  0  0  0999 V2000
    3.4833   -2.1437    2.3825 C   0  0  0  0  0  0  0  0  0  0  0  0
    2.1592   -2.0638    2.6218 C   0  0  0  0  0  0  0  0  0  0  0  0
    1.3463   -2.9875    3.5767 C   0  0  0  0  0  0  0  0  0  0  0  0
    1.9828   -4.1861    4.1846 N   0  0  0  0  0  0  0  0  0  0  0  0
    3.1270   -3.9249    5.0872 C   0  0  0  0  0  0  0  0  0  0  0  0
    4.0807   -5.1527    4.9794 C   0  0  0  0  0  0  0  0  0  0  0  0
    3.2733   -6.2103    4.1796 C   0  0  1  0  0  0  0  0  0  0  0  0
    2.2051   -6.9441    5.1554 C   0  0  1  0  0  0  0  0  0  0  0  0
    2.2598   -6.6308    6.6629 C   0  0  0  0  0  0  0  0  0  0  0  0
    0.7994   -6.7035    4.8075 O   0  0  0  0  0  0  0  0  0  0  0  0
    0.4408   -7.3914    3.6879 C   0  0  0  0  0  0  0  0  0  0  0  0
   -0.3694   -8.5719    3.7955 C   0  0  0  0  0  0  0  0  0  0  0  0
   -1.3660   -8.6690    4.7084 O   0  0  0  0  0  0  0  0  0  0  0  0
    0.0207   -9.7112    3.0986 C   0  0  0  0  0  0  0  0  0  0  0  0
    1.2700   -9.7680    2.4793 C   0  0  0  0  0  0  0  0  0  0  0  0
    2.0153   -8.5699    2.3071 C   0  0  0  0  0  0  0  0  0  0  0  0
    1.3306   -7.3860    2.6265 C   0  0  0  0  0  0  0  0  0  0  0  0
    1.8504   -5.9850    2.1503 C   0  0  1  0  0  0  0  0  0  0  0  0
    2.5350   -5.2150    3.3021 C   0  0  1  0  0  0  0  0  0  0  0  0
    2.8661   -6.1235    1.0714 N   0  0  0  0  0  0  0  0  0  0  0  0
    3.1295   -4.9520    0.2252 C   0  0  0  0  0  0  0  0  0  0  0  0
    4.6430   -4.9130   -0.1019 C   0  0  1  0  0  0  0  0  0  0  0  0
    5.1536   -3.5777   -0.1199 O   0  0  0  0  0  0  0  0  0  0  0  0
    6.2611   -3.4791    0.7883 C   0  0  0  0  0  0  0  0  0  0  0  0
    5.9868   -4.5261    1.8804 C   0  0  0  0  0  0  0  0  0  0  0  0
    5.3331   -5.6414    1.0712 C   0  0  1  0  0  0  0  0  0  0  0  0
    4.1737   -6.5432    1.6176 C   0  0  1  0  0  0  0  0  0  0  0  0
    4.0922   -7.1188    3.0967 C   0  0  2  0  0  0  0  0  0  0  0  0
    3.4701   -8.5297    2.8117 C   0  0  0  0  0  0  0  0  0  0  0  0
    4.0374   -2.8399    2.9470 H   0  0  0  0  0  0  0  0  0  0  0  0
    4.0223   -1.5462    1.6641 H   0  0  0  0  0  0  0  0  0  0  0  0
    1.5736   -1.2878    2.1008 H   0  0  0  0  0  0  0  0  0  0  0  0
    0.9475   -2.3636    4.3895 H   0  0  0  0  0  0  0  0  0  0  0  0
    0.4791   -3.3477    3.0090 H   0  0  0  0  0  0  0  0  0  0  0  0
    3.6752   -3.0163    4.8589 H   0  0  0  0  0  0  0  0  0  0  0  0
    2.8129   -3.7206    6.1095 H   0  0  0  0  0  0  0  0  0  0  0  0
    4.9885   -4.8848    4.4546 H   0  0  0  0  0  0  0  0  0  0  0  0
    4.4441   -5.4868    5.9415 H   0  0  0  0  0  0  0  0  0  0  0  0
    2.4054   -8.0170    5.1257 H   0  0  0  0  0  0  0  0  0  0  0  0
    3.2338   -6.8468    7.0969 H   0  0  0  0  0  0  0  0  0  0  0  0
    1.5401   -7.2556    7.1814 H   0  0  0  0  0  0  0  0  0  0  0  0
    1.9911   -5.5994    6.8757 H   0  0  0  0  0  0  0  0  0  0  0  0
   -1.6931   -9.5717    4.8773 H   0  0  0  0  0  0  0  0  0  0  0  0
   -0.5579  -10.6176    3.2230 H   0  0  0  0  0  0  0  0  0  0  0  0
    1.7318  -10.7192    2.2739 H   0  0  0  0  0  0  0  0  0  0  0  0
    0.9994   -5.4242    1.7770 H   0  0  0  0  0  0  0  0  0  0  0  0
    3.2800   -4.6668    2.7682 H   0  0  0  0  0  0  0  0  0  0  0  0
    2.5468   -4.9931   -0.6913 H   0  0  0  0  0  0  0  0  0  0  0  0
    2.8372   -4.0242    0.7096 H   0  0  0  0  0  0  0  0  0  0  0  0
    4.8749   -5.4332   -1.0392 H   0  0  0  0  0  0  0  0  0  0  0  0
    7.1989   -3.7063    0.2511 H   0  0  0  0  0  0  0  0  0  0  0  0
    6.3411   -2.4521    1.1693 H   0  0  0  0  0  0  0  0  0  0  0  0
    6.8823   -4.8161    2.4360 H   0  0  0  0  0  0  0  0  0  0  0  0
    5.2960   -4.1643    2.5917 H   0  0  0  0  0  0  0  0  0  0  0  0
    6.1523   -6.2781    0.7033 H   0  0  0  0  0  0  0  0  0  0  0  0
    4.3985   -7.4126    1.0007 H   0  0  0  0  0  0  0  0  0  0  0  0
    5.1110   -7.2583    3.4622 H   0  0  0  0  0  0  0  0  0  0  0  0
    3.5727   -9.1211    3.7181 H   0  0  0  0  0  0  0  0  0  0  0  0
    4.0804   -9.0800    2.0998 H   0  0  0  0  0  0  0  0  0  0  0  0
  1  2  2  0
  1 30  1  0
  1 31  1  0
  2  3  1  0
  2 32  1  0
  3  4  1  0
  3 33  1  0
  3 34  1  0
  4 19  1  0
  4  5  1  0
  5  6  1  0
  5 35  1  0
  5 36  1  0
  7  6  1  1
  6 37  1  0
  6 38  1  0
  7 19  1  0
  7 28  1  0
  7  8  1  0
  8  9  1  0
  8 10  1  0
  8 39  1  1
  9 40  1  0
  9 41  1  0
  9 42  1  0
 10 11  1  0
 11 17  2  0
 11 12  1  0
 12 13  1  0
 12 14  2  0
 13 43  1  0
 14 15  1  0
 14 44  1  0
 15 16  2  0
 15 45  1  0
 16 29  1  0
 16 17  1  0
 17 18  1  0
 18 19  1  0
 18 20  1  0
 18 46  1  6
 19 47  1  6
 20 27  1  0
 20 21  1  0
 21 22  1  0
 21 48  1  0
 21 49  1  0
 22 26  1  0
 22 23  1  0
 22 50  1  6
 23 24  1  0
 24 25  1  0
 24 51  1  0
 24 52  1  0
 25 26  1  0
 25 53  1  0
 25 54  1  0
 26 27  1  0
 26 55  1  6
 27 28  1  0
 27 56  1  6
 28 29  1  0
 28 57  1  1
 29 58  1  0
 29 59  1  0
M  END
>  <i_m_ct_stereo_status>  (87) 
1

>  <s_m_source_file>  (87) 
/var/tmp/pbs.5076255.sched01/tmpuvpulguu/0mmv31ww_.sdf

>  <i_m_source_file_index>  (87) 
44

>  <i_lp_mmshare_version>  (87) 
48012

>  <i_f3d_flags>  (87) 
0

>  <s_epik_input>  (87) 
W0NIMl09W0NIXVtDSDJdTihbQ0gyXVtDSDJdMSlbQ0BASF0oW0NAQF0xMjMpW0NAQEhdNGM1YyhPW0NAQEhdMltDSDNdKWMoW09IXSlbY0hdW2NIXWM1W0NIMl1bQ0BIXTNbQ0BIXTZONFtDSDJdW0NAQEhdN1tDQEhdNltDSDJdW0NIMl1PNw==

>  <s_epik_cmdline>  (87) 
J2VwaWtfcHl0aG9uJywgJy1waHQnLCAnMi4wJywgJy1waCcsICc3LjAnLCAnLXRuJywgJzgnLCAnLW1hJywgJzIwMCcsICctaW1hZScsICc8aW5maWxlLm1hZT4nLCAnLW9tYWUnLCAnPG91dGZpbGUubWFlPic=

>  <r_lp_tautomer_probability>  (87) 
1

>  <r_epik_Ionization_Penalty>  (87) 
2.76346

>  <r_epik_Ionization_Penalty_Charging>  (87) 
0

>  <r_epik_Ionization_Penalty_Neutral>  (87) 
2.76346

>  <r_epik_State_Penalty>  (87) 
1.90377

>  <r_epik_Charging_Adjusted_Penalty>  (87) 
1.90377

>  <i_epik_Tot_Q>  (87) 
0

>  <i_epik_Tot_abs_Q>  (87) 
0

>  <s_lp_Force_Field>  (87) 
OPLS3e

>  <r_lp_Energy>  (87) 
160.644

>  <b_lp_Chiralities_Consistent>  (87) 
1

>  <s_lp_Variant>  (87) 
28:0-3

>  <s_i_glide_gridfile>  (87) 
pfpi4k_grid

>  <i_i_glide_lignum>  (87) 
44

>  <i_i_glide_rotatable_bonds>  (87) 
3

>  <r_i_docking_score>  (87) 
-2.89052

>  <r_i_glide_ligand_efficiency>  (87) 
-0.0996731

>  <r_i_glide_ligand_efficiency_sa>  (87) 
-0.306227

>  <r_i_glide_ligand_efficiency_ln>  (87) 
-0.661856

>  <r_i_glide_gscore>  (87) 
-2.89052

>  <r_i_glide_lipo>  (87) 
-0.425866

>  <r_i_glide_hbond>  (87) 
0

>  <r_i_glide_metal>  (87) 
-0

>  <r_i_glide_rewards>  (87) 
-0.719273

>  <r_i_glide_evdw>  (87) 
-18.6053

>  <r_i_glide_ecoul>  (87) 
-7.10857

>  <r_i_glide_erotb>  (87) 
0.251171

>  <r_i_glide_esite>  (87) 
0

>  <r_i_glide_emodel>  (87) 
-26.6406

>  <r_i_glide_energy>  (87) 
-25.7139

>  <r_i_glide_einternal>  (87) 
6.16858

>  <r_i_glide_intrahb_reward>  (87) 
-0

>  <i_i_glide_confnum>  (87) 
4

>  <i_i_glide_posenum>  (87) 
1

>  <r_i_glide_eff_state_penalty>  (87) 
0

>  <ligand_id>  (87) 
28

>  <original_smiles>  (87) 
C=CCN1CCC23C(C)Oc4c(O)ccc5c4C(C12)N1CC2OCCC2C1C3C5

>  <smiles>  (87) 
[H]Oc1c([H])c([H])c2c3c1OC([H])(C([H])([H])[H])C14C([H])([H])C([H])([H])N(C([H])([H])C([H])=C([H])[H])C1([H])C3([H])N1C([H])([H])C3([H])OC([H])([H])C([H])([H])C3([H])C1([H])C4([H])C2([H])[H]

$$$$
28:2:1
     RDKit          3D

 59 65  0  0  1  0  0  0  0  0999 V2000
    3.5945   -0.2903    1.4845 C   0  0  0  0  0  0  0  0  0  0  0  0
    4.1636   -0.9457    2.5051 C   0  0  0  0  0  0  0  0  0  0  0  0
    3.3993   -1.6199    3.6376 C   0  0  0  0  0  0  0  0  0  0  0  0
    3.7461   -3.0270    3.8817 N   0  0  0  0  0  0  0  0  0  0  0  0
    5.1593   -3.2856    4.2052 C   0  0  0  0  0  0  0  0  0  0  0  0
    5.4994   -4.7176    3.6921 C   0  0  0  0  0  0  0  0  0  0  0  0
    4.1386   -5.2889    3.2401 C   0  0  1  0  0  0  0  0  0  0  0  0
    3.3190   -5.8233    4.5274 C   0  0  1  0  0  0  0  0  0  0  0  0
    4.0241   -5.8547    5.8985 C   0  0  0  0  0  0  0  0  0  0  0  0
    2.0808   -5.1183    4.8072 O   0  0  0  0  0  0  0  0  0  0  0  0
    1.1030   -5.4445    3.8957 C   0  0  0  0  0  0  0  0  0  0  0  0
    0.0658   -6.3152    4.2736 C   0  0  0  0  0  0  0  0  0  0  0  0
   -0.5037   -6.2349    5.5105 O   0  0  0  0  0  0  0  0  0  0  0  0
   -0.3292   -7.3649    3.4115 C   0  0  0  0  0  0  0  0  0  0  0  0
    0.5071   -7.6714    2.3113 C   0  0  0  0  0  0  0  0  0  0  0  0
    1.5218   -6.7683    1.9212 C   0  0  0  0  0  0  0  0  0  0  0  0
    1.5083   -5.4998    2.5575 C   0  0  0  0  0  0  0  0  0  0  0  0
    2.2701   -4.2627    1.9998 C   0  0  1  0  0  0  0  0  0  0  0  0
    3.5652   -3.9575    2.7868 C   0  0  1  0  0  0  0  0  0  0  0  0
    2.6828   -4.5108    0.5944 N   0  0  0  0  0  0  0  0  0  0  0  0
    3.0206   -3.3466   -0.2318 C   0  0  0  0  0  0  0  0  0  0  0  0
    4.2193   -3.7051   -1.1310 C   0  0  1  0  0  0  0  0  0  0  0  0
    5.1187   -2.6050   -1.2942 O   0  0  0  0  0  0  0  0  0  0  0  0
    6.4229   -3.0082   -0.8999 C   0  0  0  0  0  0  0  0  0  0  0  0
    6.1607   -4.0188    0.2116 C   0  0  0  0  0  0  0  0  0  0  0  0
    4.9582   -4.7818   -0.3418 C   0  0  1  0  0  0  0  0  0  0  0  0
    3.8500   -5.4068    0.5420 C   0  0  1  0  0  0  0  0  0  0  0  0
    4.1231   -6.1874    1.8895 C   0  0  2  0  0  0  0  0  0  0  0  0
    2.9855   -7.2592    1.8059 C   0  0  0  0  0  0  0  0  0  0  0  0
    2.5196   -0.2039    1.3931 H   0  0  0  0  0  0  0  0  0  0  0  0
    4.2034    0.1612    0.7150 H   0  0  0  0  0  0  0  0  0  0  0  0
    5.2418   -0.9798    2.5283 H   0  0  0  0  0  0  0  0  0  0  0  0
    3.5918   -1.0507    4.5483 H   0  0  0  0  0  0  0  0  0  0  0  0
    2.3266   -1.5393    3.4517 H   0  0  0  0  0  0  0  0  0  0  0  0
    5.8200   -2.5905    3.6984 H   0  0  0  0  0  0  0  0  0  0  0  0
    5.3476   -3.1696    5.2750 H   0  0  0  0  0  0  0  0  0  0  0  0
    6.1855   -4.6514    2.8506 H   0  0  0  0  0  0  0  0  0  0  0  0
    6.0397   -5.3183    4.4192 H   0  0  0  0  0  0  0  0  0  0  0  0
    3.0837   -6.8726    4.3757 H   0  0  0  0  0  0  0  0  0  0  0  0
    4.9400   -6.4461    5.8879 H   0  0  0  0  0  0  0  0  0  0  0  0
    3.3694   -6.3157    6.6412 H   0  0  0  0  0  0  0  0  0  0  0  0
    4.2481   -4.8520    6.2617 H   0  0  0  0  0  0  0  0  0  0  0  0
   -0.0390   -5.6279    6.0689 H   0  0  0  0  0  0  0  0  0  0  0  0
   -1.0830   -8.0717    3.7278 H   0  0  0  0  0  0  0  0  0  0  0  0
    0.4748   -8.6703    1.9000 H   0  0  0  0  0  0  0  0  0  0  0  0
    1.6096   -3.3954    2.0506 H   0  0  0  0  0  0  0  0  0  0  0  0
    4.2115   -3.5293    2.0360 H   0  0  0  0  0  0  0  0  0  0  0  0
    2.1638   -3.0249   -0.8268 H   0  0  0  0  0  0  0  0  0  0  0  0
    3.2947   -2.5022    0.3871 H   0  0  0  0  0  0  0  0  0  0  0  0
    3.8930   -4.0866   -2.0980 H   0  0  0  0  0  0  0  0  0  0  0  0
    6.9407   -3.4702   -1.7409 H   0  0  0  0  0  0  0  0  0  0  0  0
    7.0160   -2.1595   -0.5593 H   0  0  0  0  0  0  0  0  0  0  0  0
    7.0193   -4.6570    0.4228 H   0  0  0  0  0  0  0  0  0  0  0  0
    5.9404   -3.4360    1.0971 H   0  0  0  0  0  0  0  0  0  0  0  0
    5.3392   -5.5292   -1.0348 H   0  0  0  0  0  0  0  0  0  0  0  0
    3.5359   -6.1722   -0.1696 H   0  0  0  0  0  0  0  0  0  0  0  0
    5.0743   -6.7114    1.7996 H   0  0  0  0  0  0  0  0  0  0  0  0
    3.1556   -8.0168    2.5686 H   0  0  0  0  0  0  0  0  0  0  0  0
    3.0531   -7.8375    0.8835 H   0  0  0  0  0  0  0  0  0  0  0  0
  1  2  2  0
  1 30  1  0
  1 31  1  0
  2  3  1  0
  2 32  1  0
  3  4  1  0
  3 33  1  0
  3 34  1  0
  4 19  1  0
  4  5  1  0
  5  6  1  0
  5 35  1  0
  5 36  1  0
  7  6  1  1
  6 37  1  0
  6 38  1  0
  7 19  1  0
  7 28  1  0
  7  8  1  0
  8  9  1  0
  8 10  1  0
  8 39  1  6
  9 40  1  0
  9 41  1  0
  9 42  1  0
 10 11  1  0
 11 17  2  0
 11 12  1  0
 12 13  1  0
 12 14  2  0
 13 43  1  0
 14 15  1  0
 14 44  1  0
 15 16  2  0
 15 45  1  0
 16 29  1  0
 16 17  1  0
 17 18  1  0
 18 19  1  0
 18 20  1  0
 18 46  1  6
 19 47  1  6
 20 27  1  0
 20 21  1  0
 21 22  1  0
 21 48  1  0
 21 49  1  0
 22 26  1  0
 22 23  1  0
 22 50  1  6
 23 24  1  0
 24 25  1  0
 24 51  1  0
 24 52  1  0
 25 26  1  0
 25 53  1  0
 25 54  1  0
 26 27  1  0
 26 55  1  6
 27 28  1  0
 27 56  1  6
 28 29  1  0
 28 57  1  6
 29 58  1  0
 29 59  1  0
M  END
>  <i_m_ct_stereo_status>  (88) 
1

>  <s_m_source_file>  (88) 
/var/tmp/pbs.5076255.sched01/tmpuvpulguu/0mmv31ww_.sdf

>  <i_m_source_file_index>  (88) 
44

>  <i_lp_mmshare_version>  (88) 
48012

>  <i_f3d_flags>  (88) 
0

>  <s_epik_input>  (88) 
W0NIMl09W0NIXVtDSDJdTihbQ0gyXVtDSDJdMSlbQ0BASF0oW0NAQF0xMjMpW0NAQEhdNGM1YyhPW0NAQEhdMltDSDNdKWMoW09IXSlbY0hdW2NIXWM1W0NIMl1bQ0BIXTNbQ0BIXTZONFtDSDJdW0NAQEhdN1tDQEhdNltDSDJdW0NIMl1PNw==

>  <s_epik_cmdline>  (88) 
J2VwaWtfcHl0aG9uJywgJy1waHQnLCAnMi4wJywgJy1waCcsICc3LjAnLCAnLXRuJywgJzgnLCAnLW1hJywgJzIwMCcsICctaW1hZScsICc8aW5maWxlLm1hZT4nLCAnLW9tYWUnLCAnPG91dGZpbGUubWFlPic=

>  <r_lp_tautomer_probability>  (88) 
1

>  <r_epik_Ionization_Penalty>  (88) 
2.76346

>  <r_epik_Ionization_Penalty_Charging>  (88) 
0

>  <r_epik_Ionization_Penalty_Neutral>  (88) 
2.76346

>  <r_epik_State_Penalty>  (88) 
1.90377

>  <r_epik_Charging_Adjusted_Penalty>  (88) 
1.90377

>  <i_epik_Tot_Q>  (88) 
0

>  <i_epik_Tot_abs_Q>  (88) 
0

>  <s_lp_Force_Field>  (88) 
OPLS3e

>  <r_lp_Energy>  (88) 
160.644

>  <b_lp_Chiralities_Consistent>  (88) 
1

>  <s_lp_Variant>  (88) 
28:0-3

>  <s_i_glide_gridfile>  (88) 
pfpi4k_grid

>  <i_i_glide_lignum>  (88) 
44

>  <i_i_glide_rotatable_bonds>  (88) 
3

>  <r_i_docking_score>  (88) 
-2.21702

>  <r_i_glide_ligand_efficiency>  (88) 
-0.0764489

>  <r_i_glide_ligand_efficiency_sa>  (88) 
-0.234875

>  <r_i_glide_ligand_efficiency_ln>  (88) 
-0.507641

>  <r_i_glide_gscore>  (88) 
-2.21702

>  <r_i_glide_lipo>  (88) 
-0.279792

>  <r_i_glide_hbond>  (88) 
0

>  <r_i_glide_metal>  (88) 
-0

>  <r_i_glide_rewards>  (88) 
-0.719273

>  <r_i_glide_evdw>  (88) 
-21.3514

>  <r_i_glide_ecoul>  (88) 
-2.67703

>  <r_i_glide_erotb>  (88) 
0.251171

>  <r_i_glide_esite>  (88) 
0

>  <r_i_glide_emodel>  (88) 
-25.4658

>  <r_i_glide_energy>  (88) 
-24.0284

>  <r_i_glide_einternal>  (88) 
5.08909

>  <r_i_glide_intrahb_reward>  (88) 
-0

>  <i_i_glide_confnum>  (88) 
3

>  <i_i_glide_posenum>  (88) 
34

>  <r_i_glide_eff_state_penalty>  (88) 
0

>  <ligand_id>  (88) 
28

>  <original_smiles>  (88) 
C=CCN1CCC23C(C)Oc4c(O)ccc5c4C(C12)N1CC2OCCC2C1C3C5

>  <smiles>  (88) 
[H]Oc1c([H])c([H])c2c3c1OC([H])(C([H])([H])[H])C14C([H])([H])C([H])([H])N(C([H])([H])C([H])=C([H])[H])C1([H])C3([H])N1C([H])([H])C3([H])OC([H])([H])C([H])([H])C3([H])C1([H])C4([H])C2([H])[H]

$$$$
28:2:2
     RDKit          3D

 59 65  0  0  1  0  0  0  0  0999 V2000
    3.5243   -0.2863    1.4000 C   0  0  0  0  0  0  0  0  0  0  0  0
    4.0838   -0.9047    2.4496 C   0  0  0  0  0  0  0  0  0  0  0  0
    3.3103   -1.5811    3.5727 C   0  0  0  0  0  0  0  0  0  0  0  0
    3.6802   -2.9774    3.8369 N   0  0  0  0  0  0  0  0  0  0  0  0
    5.0928   -3.2114    4.1847 C   0  0  0  0  0  0  0  0  0  0  0  0
    5.4560   -4.6454    3.6953 C   0  0  0  0  0  0  0  0  0  0  0  0
    4.1110   -5.2419    3.2284 C   0  0  1  0  0  0  0  0  0  0  0  0
    3.2793   -5.7750    4.5079 C   0  0  1  0  0  0  0  0  0  0  0  0
    3.9623   -5.7804    5.8908 C   0  0  0  0  0  0  0  0  0  0  0  0
    2.0272   -5.0834    4.7562 O   0  0  0  0  0  0  0  0  0  0  0  0
    1.0645   -5.4370    3.8405 C   0  0  0  0  0  0  0  0  0  0  0  0
    0.0382   -6.3259    4.2129 C   0  0  0  0  0  0  0  0  0  0  0  0
   -0.5545   -6.2357    5.4382 O   0  0  0  0  0  0  0  0  0  0  0  0
   -0.3225   -7.3913    3.3570 C   0  0  0  0  0  0  0  0  0  0  0  0
    0.5320   -7.6901    2.2721 C   0  0  0  0  0  0  0  0  0  0  0  0
    1.5353   -6.7752    1.8890 C   0  0  0  0  0  0  0  0  0  0  0  0
    1.4905   -5.5001    2.5081 C   0  0  0  0  0  0  0  0  0  0  0  0
    2.2449   -4.2578    1.9496 C   0  0  1  0  0  0  0  0  0  0  0  0
    3.5245   -3.9248    2.7514 C   0  0  1  0  0  0  0  0  0  0  0  0
    2.6831   -4.5153    0.5527 N   0  0  0  0  0  0  0  0  0  0  0  0
    3.0140   -3.3559   -0.2831 C   0  0  0  0  0  0  0  0  0  0  0  0
    4.2330   -3.7063   -1.1580 C   0  0  1  0  0  0  0  0  0  0  0  0
    5.1192   -2.5956   -1.3199 O   0  0  0  0  0  0  0  0  0  0  0  0
    6.4229   -2.9768   -0.9019 C   0  0  0  0  0  0  0  0  0  0  0  0
    6.1577   -3.9752    0.2185 C   0  0  0  0  0  0  0  0  0  0  0  0
    4.9768   -4.7619   -0.3456 C   0  0  1  0  0  0  0  0  0  0  0  0
    3.8648   -5.3937    0.5273 C   0  0  1  0  0  0  0  0  0  0  0  0
    4.1283   -6.1561    1.8875 C   0  0  2  0  0  0  0  0  0  0  0  0
    3.0077   -7.2460    1.7973 C   0  0  0  0  0  0  0  0  0  0  0  0
    2.4503   -0.2359    1.2767 H   0  0  0  0  0  0  0  0  0  0  0  0
    4.1407    0.1689    0.6393 H   0  0  0  0  0  0  0  0  0  0  0  0
    5.1613   -0.9064    2.5052 H   0  0  0  0  0  0  0  0  0  0  0  0
    3.4740   -0.9992    4.4810 H   0  0  0  0  0  0  0  0  0  0  0  0
    2.2396   -1.5197    3.3670 H   0  0  0  0  0  0  0  0  0  0  0  0
    5.7657   -2.5170    3.6853 H   0  0  0  0  0  0  0  0  0  0  0  0
    5.2546   -3.0827    5.2568 H   0  0  0  0  0  0  0  0  0  0  0  0
    6.1518   -4.5800    2.8630 H   0  0  0  0  0  0  0  0  0  0  0  0
    5.9924   -5.2299    4.4378 H   0  0  0  0  0  0  0  0  0  0  0  0
    3.0595   -6.8291    4.3647 H   0  0  0  0  0  0  0  0  0  0  0  0
    4.8865   -6.3581    5.9018 H   0  0  0  0  0  0  0  0  0  0  0  0
    3.3019   -6.2415    6.6280 H   0  0  0  0  0  0  0  0  0  0  0  0
    4.1653   -4.7707    6.2455 H   0  0  0  0  0  0  0  0  0  0  0  0
   -1.0734   -6.9994    5.6478 H   0  0  0  0  0  0  0  0  0  0  0  0
   -1.0736   -8.1087    3.6564 H   0  0  0  0  0  0  0  0  0  0  0  0
    0.5194   -8.6928    1.8661 H   0  0  0  0  0  0  0  0  0  0  0  0
    1.5760   -3.3974    1.9838 H   0  0  0  0  0  0  0  0  0  0  0  0
    4.1753   -3.4945    2.0060 H   0  0  0  0  0  0  0  0  0  0  0  0
    2.1605   -3.0540   -0.8928 H   0  0  0  0  0  0  0  0  0  0  0  0
    3.2675   -2.5035    0.3326 H   0  0  0  0  0  0  0  0  0  0  0  0
    3.9298   -4.1035   -2.1262 H   0  0  0  0  0  0  0  0  0  0  0  0
    6.9590   -3.4497   -1.7261 H   0  0  0  0  0  0  0  0  0  0  0  0
    6.9984   -2.1148   -0.5638 H   0  0  0  0  0  0  0  0  0  0  0  0
    7.0224   -4.5981    0.4492 H   0  0  0  0  0  0  0  0  0  0  0  0
    5.9163   -3.3849    1.0935 H   0  0  0  0  0  0  0  0  0  0  0  0
    5.3800   -5.5107   -1.0245 H   0  0  0  0  0  0  0  0  0  0  0  0
    3.5732   -6.1708   -0.1811 H   0  0  0  0  0  0  0  0  0  0  0  0
    5.0886   -6.6662    1.8183 H   0  0  0  0  0  0  0  0  0  0  0  0
    3.1777   -7.9930    2.5704 H   0  0  0  0  0  0  0  0  0  0  0  0
    3.0988   -7.8315    0.8819 H   0  0  0  0  0  0  0  0  0  0  0  0
  1  2  2  0
  1 30  1  0
  1 31  1  0
  2  3  1  0
  2 32  1  0
  3  4  1  0
  3 33  1  0
  3 34  1  0
  4 19  1  0
  4  5  1  0
  5  6  1  0
  5 35  1  0
  5 36  1  0
  7  6  1  1
  6 37  1  0
  6 38  1  0
  7 19  1  0
  7 28  1  0
  7  8  1  0
  8  9  1  0
  8 10  1  0
  8 39  1  6
  9 40  1  0
  9 41  1  0
  9 42  1  0
 10 11  1  0
 11 17  2  0
 11 12  1  0
 12 13  1  0
 12 14  2  0
 13 43  1  0
 14 15  1  0
 14 44  1  0
 15 16  2  0
 15 45  1  0
 16 29  1  0
 16 17  1  0
 17 18  1  0
 18 19  1  0
 18 20  1  0
 18 46  1  6
 19 47  1  6
 20 27  1  0
 20 21  1  0
 21 22  1  0
 21 48  1  0
 21 49  1  0
 22 26  1  0
 22 23  1  0
 22 50  1  6
 23 24  1  0
 24 25  1  0
 24 51  1  0
 24 52  1  0
 25 26  1  0
 25 53  1  0
 25 54  1  0
 26 27  1  0
 26 55  1  6
 27 28  1  0
 27 56  1  6
 28 29  1  0
 28 57  1  6
 29 58  1  0
 29 59  1  0
M  END
>  <i_m_ct_stereo_status>  (89) 
1

>  <s_m_source_file>  (89) 
/var/tmp/pbs.5076255.sched01/tmpuvpulguu/0mmv31ww_.sdf

>  <i_m_source_file_index>  (89) 
44

>  <i_lp_mmshare_version>  (89) 
48012

>  <i_f3d_flags>  (89) 
0

>  <s_epik_input>  (89) 
W0NIMl09W0NIXVtDSDJdTihbQ0gyXVtDSDJdMSlbQ0BASF0oW0NAQF0xMjMpW0NAQEhdNGM1YyhPW0NAQEhdMltDSDNdKWMoW09IXSlbY0hdW2NIXWM1W0NIMl1bQ0BIXTNbQ0BIXTZONFtDSDJdW0NAQEhdN1tDQEhdNltDSDJdW0NIMl1PNw==

>  <s_epik_cmdline>  (89) 
J2VwaWtfcHl0aG9uJywgJy1waHQnLCAnMi4wJywgJy1waCcsICc3LjAnLCAnLXRuJywgJzgnLCAnLW1hJywgJzIwMCcsICctaW1hZScsICc8aW5maWxlLm1hZT4nLCAnLW9tYWUnLCAnPG91dGZpbGUubWFlPic=

>  <r_lp_tautomer_probability>  (89) 
1

>  <r_epik_Ionization_Penalty>  (89) 
2.76346

>  <r_epik_Ionization_Penalty_Charging>  (89) 
0

>  <r_epik_Ionization_Penalty_Neutral>  (89) 
2.76346

>  <r_epik_State_Penalty>  (89) 
1.90377

>  <r_epik_Charging_Adjusted_Penalty>  (89) 
1.90377

>  <i_epik_Tot_Q>  (89) 
0

>  <i_epik_Tot_abs_Q>  (89) 
0

>  <s_lp_Force_Field>  (89) 
OPLS3e

>  <r_lp_Energy>  (89) 
160.644

>  <b_lp_Chiralities_Consistent>  (89) 
1

>  <s_lp_Variant>  (89) 
28:0-3

>  <s_i_glide_gridfile>  (89) 
pfpi4k_grid

>  <i_i_glide_lignum>  (89) 
44

>  <i_i_glide_rotatable_bonds>  (89) 
3

>  <r_i_docking_score>  (89) 
-2.11774

>  <r_i_glide_ligand_efficiency>  (89) 
-0.0730254

>  <r_i_glide_ligand_efficiency_sa>  (89) 
-0.224357

>  <r_i_glide_ligand_efficiency_ln>  (89) 
-0.484908

>  <r_i_glide_gscore>  (89) 
-2.11774

>  <r_i_glide_lipo>  (89) 
-0.28307

>  <r_i_glide_hbond>  (89) 
0

>  <r_i_glide_metal>  (89) 
-0

>  <r_i_glide_rewards>  (89) 
-0.719273

>  <r_i_glide_evdw>  (89) 
-21.4527

>  <r_i_glide_ecoul>  (89) 
-1.95954

>  <r_i_glide_erotb>  (89) 
0.251171

>  <r_i_glide_esite>  (89) 
0

>  <r_i_glide_emodel>  (89) 
-24.6542

>  <r_i_glide_energy>  (89) 
-23.4122

>  <r_i_glide_einternal>  (89) 
5.1185

>  <r_i_glide_intrahb_reward>  (89) 
-0

>  <i_i_glide_confnum>  (89) 
3

>  <i_i_glide_posenum>  (89) 
24

>  <r_i_glide_eff_state_penalty>  (89) 
0

>  <ligand_id>  (89) 
28

>  <original_smiles>  (89) 
C=CCN1CCC23C(C)Oc4c(O)ccc5c4C(C12)N1CC2OCCC2C1C3C5

>  <smiles>  (89) 
[H]Oc1c([H])c([H])c2c3c1OC([H])(C([H])([H])[H])C14C([H])([H])C([H])([H])N(C([H])([H])C([H])=C([H])[H])C1([H])C3([H])N1C([H])([H])C3([H])OC([H])([H])C([H])([H])C3([H])C1([H])C4([H])C2([H])[H]

$$$$
30:0:0
     RDKit          3D

 79 84  0  0  1  0  0  0  0  0999 V2000
    2.5900   -2.2760   -3.2392 C   0  0  0  0  0  0  0  0  0  0  0  0
    3.6569   -1.6492   -2.3270 C   0  0  0  0  0  0  0  0  0  0  0  0
    4.1027   -2.5408   -1.3108 O   0  0  0  0  0  0  0  0  0  0  0  0
    4.7939   -3.6492   -1.6379 C   0  0  0  0  0  0  0  0  0  0  0  0
    5.0622   -4.0029   -2.7791 O   0  0  0  0  0  0  0  0  0  0  0  0
    5.1094   -4.3377   -0.5137 O   0  0  0  0  0  0  0  0  0  0  0  0
    5.4478   -3.6797    0.7073 C   0  0  2  0  0  0  0  0  0  0  0  0
    6.9759   -3.4271    0.6772 C   0  0  0  0  0  0  0  0  0  0  0  0
    7.7987   -4.6861    0.9260 C   0  0  0  0  0  0  0  0  0  0  0  0
    8.5751   -5.1503    0.0887 O   0  0  0  0  0  0  0  0  0  0  0  0
    7.5929   -5.1793    2.1421 O   0  0  0  0  0  0  0  0  0  0  0  0
    6.7526   -6.3053    2.2995 C   0  0  1  0  0  0  0  0  0  0  0  0
    6.9456   -6.9349    3.6836 C   0  0  0  0  0  0  0  0  0  0  0  0
    6.0940   -8.2170    3.8678 C   0  0  0  0  0  0  0  0  0  0  0  0
    4.7426   -8.3013    3.0564 C   0  0  1  0  0  0  0  0  0  0  0  0
    5.0584   -8.9899    1.6929 C   0  0  0  0  0  0  0  0  0  0  0  0
    3.6235   -9.0844    3.8618 C   0  0  2  0  0  0  0  0  0  0  0  0
    4.2704  -10.1954    4.4722 O   0  0  0  0  0  0  0  0  0  0  0  0
    2.5861   -9.8547    2.9902 C   0  0  0  0  0  0  0  0  0  0  0  0
    1.6181   -9.0869    2.0822 C   0  0  0  0  0  0  0  0  0  0  0  0
    0.8099   -7.8702    2.6054 C   0  0  2  0  0  0  0  0  0  0  0  0
   -0.0670   -7.4432    1.3860 C   0  0  0  0  0  0  0  0  0  0  0  0
    1.7661   -6.6375    2.8391 C   0  0  1  0  0  0  0  0  0  0  0  0
    1.9269   -6.0723    4.2477 C   0  0  0  0  0  0  0  0  0  0  0  0
    3.1176   -6.7065    4.9021 C   0  0  2  0  0  0  0  0  0  0  0  0
    4.1959   -6.2513    4.1161 O   0  0  0  0  0  0  0  0  0  0  0  0
    4.2575   -6.8202    2.8427 C   0  0  2  0  0  0  0  0  0  0  0  0
    3.0248   -6.7634    2.1435 O   0  0  0  0  0  0  0  0  0  0  0  0
    5.2595   -5.9631    1.9905 C   0  0  1  0  0  0  0  0  0  0  0  0
    4.8479   -4.4429    1.9276 C   0  0  1  0  0  0  0  0  0  0  0  0
    5.0905   -3.6041    3.2046 C   0  0  0  0  0  0  0  0  0  0  0  0
    3.0548   -8.2415    5.0648 C   0  0  1  0  0  0  0  0  0  0  0  0
    1.7438   -8.6849    5.7812 C   0  0  0  0  0  0  0  0  0  0  0  0
    0.4286   -9.0611    5.0312 C   0  0  0  0  0  0  0  0  0  0  0  0
   -0.1576   -8.2735    3.8062 C   0  0  1  0  0  0  0  0  0  0  0  0
   -1.1184   -7.1393    4.2571 C   0  0  0  0  0  0  0  0  0  0  0  0
   -1.0616   -9.2344    3.2788 O   0  0  0  0  0  0  0  0  0  0  0  0
    2.2122   -1.5603   -3.9670 H   0  0  0  0  0  0  0  0  0  0  0  0
    1.7431   -2.6050   -2.6414 H   0  0  0  0  0  0  0  0  0  0  0  0
    2.9443   -3.1422   -3.7947 H   0  0  0  0  0  0  0  0  0  0  0  0
    4.5045   -1.2810   -2.9051 H   0  0  0  0  0  0  0  0  0  0  0  0
    3.2287   -0.7801   -1.8272 H   0  0  0  0  0  0  0  0  0  0  0  0
    4.9919   -2.6907    0.7627 H   0  0  0  0  0  0  0  0  0  0  0  0
    7.2672   -3.0054   -0.2877 H   0  0  0  0  0  0  0  0  0  0  0  0
    7.2326   -2.6918    1.4350 H   0  0  0  0  0  0  0  0  0  0  0  0
    7.1183   -7.0263    1.5701 H   0  0  0  0  0  0  0  0  0  0  0  0
    8.0007   -7.1668    3.8463 H   0  0  0  0  0  0  0  0  0  0  0  0
    6.6904   -6.2061    4.4559 H   0  0  0  0  0  0  0  0  0  0  0  0
    6.7058   -9.0832    3.6142 H   0  0  0  0  0  0  0  0  0  0  0  0
    5.9141   -8.3191    4.9381 H   0  0  0  0  0  0  0  0  0  0  0  0
    4.2518   -8.9067    0.9700 H   0  0  0  0  0  0  0  0  0  0  0  0
    5.2659  -10.0509    1.8393 H   0  0  0  0  0  0  0  0  0  0  0  0
    5.9392   -8.5985    1.1975 H   0  0  0  0  0  0  0  0  0  0  0  0
    3.6053  -10.7366    4.8733 H   0  0  0  0  0  0  0  0  0  0  0  0
    3.1117  -10.5507    2.3360 H   0  0  0  0  0  0  0  0  0  0  0  0
    2.0283  -10.5528    3.6041 H   0  0  0  0  0  0  0  0  0  0  0  0
    2.1455   -8.7841    1.1762 H   0  0  0  0  0  0  0  0  0  0  0  0
    0.9130   -9.8350    1.7158 H   0  0  0  0  0  0  0  0  0  0  0  0
   -0.7112   -6.5943    1.5953 H   0  0  0  0  0  0  0  0  0  0  0  0
   -0.7159   -8.2484    1.0384 H   0  0  0  0  0  0  0  0  0  0  0  0
    0.5549   -7.1585    0.5357 H   0  0  0  0  0  0  0  0  0  0  0  0
    1.3065   -5.7953    2.3216 H   0  0  0  0  0  0  0  0  0  0  0  0
    2.1054   -4.9992    4.1770 H   0  0  0  0  0  0  0  0  0  0  0  0
    1.0611   -6.1652    4.8821 H   0  0  0  0  0  0  0  0  0  0  0  0
    3.2253   -6.2532    5.8898 H   0  0  0  0  0  0  0  0  0  0  0  0
    5.1189   -6.3330    0.9753 H   0  0  0  0  0  0  0  0  0  0  0  0
    3.7684   -4.4134    1.7629 H   0  0  0  0  0  0  0  0  0  0  0  0
    6.1171   -3.6884    3.5394 H   0  0  0  0  0  0  0  0  0  0  0  0
    4.4527   -3.8934    4.0362 H   0  0  0  0  0  0  0  0  0  0  0  0
    4.9011   -2.5445    3.0225 H   0  0  0  0  0  0  0  0  0  0  0  0
    3.8060   -8.3675    5.8446 H   0  0  0  0  0  0  0  0  0  0  0  0
    1.9985   -9.5618    6.3809 H   0  0  0  0  0  0  0  0  0  0  0  0
    1.5008   -7.9230    6.5251 H   0  0  0  0  0  0  0  0  0  0  0  0
    0.4745  -10.1240    4.8014 H   0  0  0  0  0  0  0  0  0  0  0  0
   -0.3475   -9.0626    5.8007 H   0  0  0  0  0  0  0  0  0  0  0  0
   -0.9079   -6.2007    3.7528 H   0  0  0  0  0  0  0  0  0  0  0  0
   -1.0295   -6.9392    5.3231 H   0  0  0  0  0  0  0  0  0  0  0  0
   -2.1699   -7.3670    4.0666 H   0  0  0  0  0  0  0  0  0  0  0  0
   -1.4302   -9.7556    3.9854 H   0  0  0  0  0  0  0  0  0  0  0  0
  1  2  1  0
  1 38  1  0
  1 39  1  0
  1 40  1  0
  2  3  1  0
  2 41  1  0
  2 42  1  0
  3  4  1  0
  4  5  2  0
  4  6  1  0
  6  7  1  0
  7 30  1  0
  7  8  1  0
  7 43  1  6
  8  9  1  0
  8 44  1  0
  8 45  1  0
  9 10  2  0
  9 11  1  0
 11 12  1  0
 12 29  1  0
 12 13  1  0
 12 46  1  6
 13 14  1  0
 13 47  1  0
 13 48  1  0
 14 15  1  0
 14 49  1  0
 14 50  1  0
 15 27  1  0
 15 16  1  6
 15 17  1  0
 16 51  1  0
 16 52  1  0
 16 53  1  0
 17 32  1  0
 17 18  1  1
 17 19  1  0
 18 54  1  0
 19 20  1  0
 19 55  1  0
 19 56  1  0
 20 21  1  0
 20 57  1  0
 20 58  1  0
 21 35  1  0
 21 22  1  6
 21 23  1  0
 22 59  1  0
 22 60  1  0
 22 61  1  0
 23 28  1  0
 23 24  1  0
 23 62  1  6
 24 25  1  0
 24 63  1  0
 24 64  1  0
 25 26  1  0
 25 32  1  0
 25 65  1  1
 27 26  1  1
 27 28  1  0
 27 29  1  0
 29 30  1  0
 29 66  1  6
 30 31  1  0
 30 67  1  6
 31 68  1  0
 31 69  1  0
 31 70  1  0
 32 33  1  0
 32 71  1  1
 33 34  1  0
 33 72  1  0
 33 73  1  0
 34 35  1  0
 34 74  1  0
 34 75  1  0
 35 36  1  0
 35 37  1  6
 36 76  1  0
 36 77  1  0
 36 78  1  0
 37 79  1  0
M  END
>  <i_m_ct_stereo_status>  (90) 
1

>  <s_m_source_file>  (90) 
/var/tmp/pbs.5076255.sched01/tmpgskxq70o/44i51uky9l.sdf

>  <i_m_source_file_index>  (90) 
2

>  <i_lp_mmshare_version>  (90) 
48012

>  <i_f3d_flags>  (90) 
0

>  <s_epik_input>  (90) 
W0NIM11bQ0gyXU9DKD1PKU9bQ0BIXShbQ0gyXUMoPU8pTzEpW0NASF0oW0NIM10pW0NASF0yW0NAQEhdMVtDSDJdW0NIMl1bQ0BAXShbQ0BdMjM0KShbQ0gzXSlbQ0BAXTUoW09IXSlbQ0BIXTZbQ0BASF0oTzMpW0NIMl1bQ0BASF0oTzQpW0NAQF0oW0NIM10pKFtDSDJdW0NIMl01KVtDQEBdKFtDSDNdKShbT0hdKVtDSDJdW0NIMl02

>  <s_epik_cmdline>  (90) 
J2VwaWtfcHl0aG9uJywgJy1waHQnLCAnMi4wJywgJy1waCcsICc3LjAnLCAnLXRuJywgJzgnLCAnLW1hJywgJzIwMCcsICctaW1hZScsICc8aW5maWxlLm1hZT4nLCAnLW9tYWUnLCAnPG91dGZpbGUubWFlPic=

>  <r_lp_tautomer_probability>  (90) 
1

>  <r_epik_Ionization_Penalty>  (90) 
5.08198e-07

>  <r_epik_Ionization_Penalty_Charging>  (90) 
0

>  <r_epik_Ionization_Penalty_Neutral>  (90) 
5.08198e-07

>  <r_epik_State_Penalty>  (90) 
-0

>  <r_epik_Charging_Adjusted_Penalty>  (90) 
0

>  <i_epik_Tot_Q>  (90) 
0

>  <i_epik_Tot_abs_Q>  (90) 
0

>  <s_epik_Chemistry_Notes>  (90) 
This compound has an ester and may undergo hydrolysis at high or low pH. This is carbonic acid which has a microscopic pka value of about 3.8 however its equilibrium with CO2 as a lewis acid yields a pKa of about 6.35.

>  <s_lp_Force_Field>  (90) 
OPLS3e

>  <r_lp_Energy>  (90) 
119.028

>  <b_lp_Chiralities_Consistent>  (90) 
1

>  <s_lp_Variant>  (90) 
30:0-1

>  <s_i_glide_gridfile>  (90) 
pfpi4k_grid

>  <i_i_glide_lignum>  (90) 
2

>  <i_i_glide_rotatable_bonds>  (90) 
6

>  <r_i_docking_score>  (90) 
-2.83175

>  <r_i_glide_ligand_efficiency>  (90) 
-0.0765339

>  <r_i_glide_ligand_efficiency_sa>  (90) 
-0.255028

>  <r_i_glide_ligand_efficiency_ln>  (90) 
-0.614141

>  <r_i_glide_gscore>  (90) 
-2.83175

>  <r_i_glide_lipo>  (90) 
-0.401484

>  <r_i_glide_hbond>  (90) 
-0.16

>  <r_i_glide_metal>  (90) 
-0

>  <r_i_glide_rewards>  (90) 
-0.18943

>  <r_i_glide_evdw>  (90) 
-37.6499

>  <r_i_glide_ecoul>  (90) 
-2.79446

>  <r_i_glide_erotb>  (90) 
0.225874

>  <r_i_glide_esite>  (90) 
-0.00504995

>  <r_i_glide_emodel>  (90) 
-44.3968

>  <r_i_glide_energy>  (90) 
-40.4444

>  <r_i_glide_einternal>  (90) 
5.88567

>  <r_i_glide_intrahb_reward>  (90) 
-0

>  <i_i_glide_confnum>  (90) 
2

>  <i_i_glide_posenum>  (90) 
37

>  <r_i_glide_eff_state_penalty>  (90) 
0

>  <ligand_id>  (90) 
30

>  <original_smiles>  (90) 
CCOC(=O)OC1CC(=O)OC2CCC3(C)C4(O)CCC5(C)C6CC(OC3(O6)C2C1C)C4CCC5(C)O

>  <smiles>  (90) 
[H]OC1(C([H])([H])[H])C([H])([H])C([H])([H])C2([H])C3([H])OC45OC([H])(C3([H])[H])C1(C([H])([H])[H])C([H])([H])C([H])([H])C2(O[H])C4(C([H])([H])[H])C([H])([H])C([H])([H])C1([H])OC(=O)C([H])([H])C([H])(OC(=O)OC([H])([H])C([H])([H])[H])C([H])(C([H])([H])[H])C15[H]

$$$$
30:0:1
     RDKit          3D

 79 84  0  0  1  0  0  0  0  0999 V2000
    3.8118   -0.9798   -4.5537 C   0  0  0  0  0  0  0  0  0  0  0  0
    3.3414   -0.4818   -3.1873 C   0  0  0  0  0  0  0  0  0  0  0  0
    3.5717   -1.3985   -2.1327 O   0  0  0  0  0  0  0  0  0  0  0  0
    3.0150   -2.6249   -2.0728 C   0  0  0  0  0  0  0  0  0  0  0  0
    2.2769   -3.1082   -2.9367 O   0  0  0  0  0  0  0  0  0  0  0  0
    3.4017   -3.2493   -0.9276 O   0  0  0  0  0  0  0  0  0  0  0  0
    3.9396   -2.5371    0.1940 C   0  0  2  0  0  0  0  0  0  0  0  0
    5.3667   -1.9459   -0.0512 C   0  0  0  0  0  0  0  0  0  0  0  0
    6.4374   -3.0172   -0.0641 C   0  0  0  0  0  0  0  0  0  0  0  0
    7.0158   -3.3509   -1.0969 O   0  0  0  0  0  0  0  0  0  0  0  0
    6.6121   -3.5749    1.1296 O   0  0  0  0  0  0  0  0  0  0  0  0
    6.0529   -4.8604    1.3292 C   0  0  1  0  0  0  0  0  0  0  0  0
    6.6583   -5.4795    2.5863 C   0  0  0  0  0  0  0  0  0  0  0  0
    6.1494   -6.9163    2.8456 C   0  0  0  0  0  0  0  0  0  0  0  0
    4.6958   -7.2609    2.3339 C   0  0  1  0  0  0  0  0  0  0  0  0
    4.8280   -7.8292    0.8998 C   0  0  0  0  0  0  0  0  0  0  0  0
    3.9632   -8.2866    3.2951 C   0  0  2  0  0  0  0  0  0  0  0  0
    4.9423   -9.2548    3.6745 O   0  0  0  0  0  0  0  0  0  0  0  0
    2.9490   -9.2467    2.6020 C   0  0  0  0  0  0  0  0  0  0  0  0
    1.6693   -8.6889    1.9620 C   0  0  0  0  0  0  0  0  0  0  0  0
    0.7676   -7.6843    2.7282 C   0  0  2  0  0  0  0  0  0  0  0  0
   -0.4195   -7.4391    1.7385 C   0  0  0  0  0  0  0  0  0  0  0  0
    1.4703   -6.2781    2.8470 C   0  0  1  0  0  0  0  0  0  0  0  0
    1.8149   -5.7252    4.2272 C   0  0  0  0  0  0  0  0  0  0  0  0
    3.2224   -6.0999    4.5779 C   0  0  2  0  0  0  0  0  0  0  0  0
    3.9863   -5.3985    3.6193 O   0  0  0  0  0  0  0  0  0  0  0  0
    3.8852   -5.9094    2.3253 C   0  0  2  0  0  0  0  0  0  0  0  0
    2.5466   -6.1029    1.8969 O   0  0  0  0  0  0  0  0  0  0  0  0
    4.4902   -4.8334    1.3513 C   0  0  1  0  0  0  0  0  0  0  0  0
    3.7766   -3.4267    1.4689 C   0  0  1  0  0  0  0  0  0  0  0  0
    4.1266   -2.5854    2.7214 C   0  0  0  0  0  0  0  0  0  0  0  0
    3.5177   -7.6161    4.6422 C   0  0  1  0  0  0  0  0  0  0  0  0
    2.5162   -8.3493    5.5837 C   0  0  0  0  0  0  0  0  0  0  0  0
    1.1772   -8.9835    5.0991 C   0  0  0  0  0  0  0  0  0  0  0  0
    0.1901   -8.3135    4.0736 C   0  0  1  0  0  0  0  0  0  0  0  0
   -0.8541   -7.4120    4.7903 C   0  0  0  0  0  0  0  0  0  0  0  0
   -0.5902   -9.4380    3.6630 O   0  0  0  0  0  0  0  0  0  0  0  0
    3.6422   -0.2405   -5.3322 H   0  0  0  0  0  0  0  0  0  0  0  0
    3.2859   -1.8802   -4.8414 H   0  0  0  0  0  0  0  0  0  0  0  0
    4.8696   -1.2015   -4.5312 H   0  0  0  0  0  0  0  0  0  0  0  0
    3.9122    0.4146   -2.9430 H   0  0  0  0  0  0  0  0  0  0  0  0
    2.2940   -0.1585   -3.2117 H   0  0  0  0  0  0  0  0  0  0  0  0
    3.2688   -1.6902    0.3392 H   0  0  0  0  0  0  0  0  0  0  0  0
    5.4489   -1.4155   -0.9967 H   0  0  0  0  0  0  0  0  0  0  0  0
    5.6078   -1.2317    0.7395 H   0  0  0  0  0  0  0  0  0  0  0  0
    6.3897   -5.4626    0.4835 H   0  0  0  0  0  0  0  0  0  0  0  0
    7.7464   -5.4745    2.5147 H   0  0  0  0  0  0  0  0  0  0  0  0
    6.4166   -4.8501    3.4430 H   0  0  0  0  0  0  0  0  0  0  0  0
    6.8632   -7.6179    2.4087 H   0  0  0  0  0  0  0  0  0  0  0  0
    6.2366   -7.0737    3.9220 H   0  0  0  0  0  0  0  0  0  0  0  0
    3.8808   -7.9281    0.3855 H   0  0  0  0  0  0  0  0  0  0  0  0
    5.3171   -8.8057    0.9011 H   0  0  0  0  0  0  0  0  0  0  0  0
    5.4167   -7.1918    0.2594 H   0  0  0  0  0  0  0  0  0  0  0  0
    5.1243   -9.7946    2.9269 H   0  0  0  0  0  0  0  0  0  0  0  0
    3.4452   -9.8010    1.8063 H   0  0  0  0  0  0  0  0  0  0  0  0
    2.6947  -10.0569    3.2720 H   0  0  0  0  0  0  0  0  0  0  0  0
    1.9037   -8.2624    0.9912 H   0  0  0  0  0  0  0  0  0  0  0  0
    1.0698   -9.5583    1.6906 H   0  0  0  0  0  0  0  0  0  0  0  0
   -1.1797   -6.7755    2.1429 H   0  0  0  0  0  0  0  0  0  0  0  0
   -0.9343   -8.3565    1.4561 H   0  0  0  0  0  0  0  0  0  0  0  0
   -0.0719   -6.9959    0.8053 H   0  0  0  0  0  0  0  0  0  0  0  0
    0.7452   -5.5463    2.4963 H   0  0  0  0  0  0  0  0  0  0  0  0
    1.7459   -4.6368    4.2016 H   0  0  0  0  0  0  0  0  0  0  0  0
    1.1497   -6.0176    5.0237 H   0  0  0  0  0  0  0  0  0  0  0  0
    3.4484   -5.6579    5.5496 H   0  0  0  0  0  0  0  0  0  0  0  0
    4.2114   -5.1966    0.3626 H   0  0  0  0  0  0  0  0  0  0  0  0
    2.7059   -3.6224    1.5404 H   0  0  0  0  0  0  0  0  0  0  0  0
    5.1967   -2.4297    2.8429 H   0  0  0  0  0  0  0  0  0  0  0  0
    3.7576   -3.0336    3.6391 H   0  0  0  0  0  0  0  0  0  0  0  0
    3.6675   -1.5971    2.6634 H   0  0  0  0  0  0  0  0  0  0  0  0
    4.4345   -7.5975    5.2360 H   0  0  0  0  0  0  0  0  0  0  0  0
    3.0732   -9.1620    6.0520 H   0  0  0  0  0  0  0  0  0  0  0  0
    2.2906   -7.6769    6.4120 H   0  0  0  0  0  0  0  0  0  0  0  0
    1.3866  -10.0057    4.7952 H   0  0  0  0  0  0  0  0  0  0  0  0
    0.6047   -9.1681    6.0105 H   0  0  0  0  0  0  0  0  0  0  0  0
   -0.9749   -6.4371    4.3223 H   0  0  0  0  0  0  0  0  0  0  0  0
   -0.5764   -7.2273    5.8247 H   0  0  0  0  0  0  0  0  0  0  0  0
   -1.8431   -7.8674    4.8215 H   0  0  0  0  0  0  0  0  0  0  0  0
   -1.0371   -9.8377    4.4019 H   0  0  0  0  0  0  0  0  0  0  0  0
  1  2  1  0
  1 38  1  0
  1 39  1  0
  1 40  1  0
  2  3  1  0
  2 41  1  0
  2 42  1  0
  3  4  1  0
  4  5  2  0
  4  6  1  0
  6  7  1  0
  7 30  1  0
  7  8  1  0
  7 43  1  1
  8  9  1  0
  8 44  1  0
  8 45  1  0
  9 10  2  0
  9 11  1  0
 11 12  1  0
 12 29  1  0
 12 13  1  0
 12 46  1  6
 13 14  1  0
 13 47  1  0
 13 48  1  0
 14 15  1  0
 14 49  1  0
 14 50  1  0
 15 27  1  0
 15 16  1  6
 15 17  1  0
 16 51  1  0
 16 52  1  0
 16 53  1  0
 17 32  1  0
 17 18  1  1
 17 19  1  0
 18 54  1  0
 19 20  1  0
 19 55  1  0
 19 56  1  0
 20 21  1  0
 20 57  1  0
 20 58  1  0
 21 35  1  0
 21 22  1  6
 21 23  1  0
 22 59  1  0
 22 60  1  0
 22 61  1  0
 23 28  1  0
 23 24  1  0
 23 62  1  6
 24 25  1  0
 24 63  1  0
 24 64  1  0
 25 26  1  0
 25 32  1  0
 25 65  1  1
 27 26  1  1
 27 28  1  0
 27 29  1  0
 29 30  1  0
 29 66  1  6
 30 31  1  0
 30 67  1  1
 31 68  1  0
 31 69  1  0
 31 70  1  0
 32 33  1  0
 32 71  1  1
 33 34  1  0
 33 72  1  0
 33 73  1  0
 34 35  1  0
 34 74  1  0
 34 75  1  0
 35 36  1  0
 35 37  1  6
 36 76  1  0
 36 77  1  0
 36 78  1  0
 37 79  1  0
M  END
>  <i_m_ct_stereo_status>  (91) 
1

>  <s_m_source_file>  (91) 
/var/tmp/pbs.5076255.sched01/tmpgskxq70o/44i51uky9l.sdf

>  <i_m_source_file_index>  (91) 
2

>  <i_lp_mmshare_version>  (91) 
48012

>  <i_f3d_flags>  (91) 
0

>  <s_epik_input>  (91) 
W0NIM11bQ0gyXU9DKD1PKU9bQ0BIXShbQ0gyXUMoPU8pTzEpW0NASF0oW0NIM10pW0NASF0yW0NAQEhdMVtDSDJdW0NIMl1bQ0BAXShbQ0BdMjM0KShbQ0gzXSlbQ0BAXTUoW09IXSlbQ0BIXTZbQ0BASF0oTzMpW0NIMl1bQ0BASF0oTzQpW0NAQF0oW0NIM10pKFtDSDJdW0NIMl01KVtDQEBdKFtDSDNdKShbT0hdKVtDSDJdW0NIMl02

>  <s_epik_cmdline>  (91) 
J2VwaWtfcHl0aG9uJywgJy1waHQnLCAnMi4wJywgJy1waCcsICc3LjAnLCAnLXRuJywgJzgnLCAnLW1hJywgJzIwMCcsICctaW1hZScsICc8aW5maWxlLm1hZT4nLCAnLW9tYWUnLCAnPG91dGZpbGUubWFlPic=

>  <r_lp_tautomer_probability>  (91) 
1

>  <r_epik_Ionization_Penalty>  (91) 
5.08198e-07

>  <r_epik_Ionization_Penalty_Charging>  (91) 
0

>  <r_epik_Ionization_Penalty_Neutral>  (91) 
5.08198e-07

>  <r_epik_State_Penalty>  (91) 
-0

>  <r_epik_Charging_Adjusted_Penalty>  (91) 
0

>  <i_epik_Tot_Q>  (91) 
0

>  <i_epik_Tot_abs_Q>  (91) 
0

>  <s_epik_Chemistry_Notes>  (91) 
This compound has an ester and may undergo hydrolysis at high or low pH. This is carbonic acid which has a microscopic pka value of about 3.8 however its equilibrium with CO2 as a lewis acid yields a pKa of about 6.35.

>  <s_lp_Force_Field>  (91) 
OPLS3e

>  <r_lp_Energy>  (91) 
119.028

>  <b_lp_Chiralities_Consistent>  (91) 
1

>  <s_lp_Variant>  (91) 
30:0-1

>  <s_i_glide_gridfile>  (91) 
pfpi4k_grid

>  <i_i_glide_lignum>  (91) 
2

>  <i_i_glide_rotatable_bonds>  (91) 
6

>  <r_i_docking_score>  (91) 
-2.52264

>  <r_i_glide_ligand_efficiency>  (91) 
-0.0681795

>  <r_i_glide_ligand_efficiency_sa>  (91) 
-0.227189

>  <r_i_glide_ligand_efficiency_ln>  (91) 
-0.547101

>  <r_i_glide_gscore>  (91) 
-2.52264

>  <r_i_glide_lipo>  (91) 
-0.291032

>  <r_i_glide_hbond>  (91) 
-0.16

>  <r_i_glide_metal>  (91) 
-0

>  <r_i_glide_rewards>  (91) 
-0.0955368

>  <r_i_glide_evdw>  (91) 
-39.7673

>  <r_i_glide_ecoul>  (91) 
-1.15159

>  <r_i_glide_erotb>  (91) 
0.225874

>  <r_i_glide_esite>  (91) 
-0.0408394

>  <r_i_glide_emodel>  (91) 
-44.088

>  <r_i_glide_energy>  (91) 
-40.9189

>  <r_i_glide_einternal>  (91) 
5.3675

>  <r_i_glide_intrahb_reward>  (91) 
-0

>  <i_i_glide_confnum>  (91) 
2

>  <i_i_glide_posenum>  (91) 
8

>  <r_i_glide_eff_state_penalty>  (91) 
0

>  <ligand_id>  (91) 
30

>  <original_smiles>  (91) 
CCOC(=O)OC1CC(=O)OC2CCC3(C)C4(O)CCC5(C)C6CC(OC3(O6)C2C1C)C4CCC5(C)O

>  <smiles>  (91) 
[H]OC1(C([H])([H])[H])C([H])([H])C([H])([H])C2([H])C3([H])OC45OC([H])(C3([H])[H])C1(C([H])([H])[H])C([H])([H])C([H])([H])C2(O[H])C4(C([H])([H])[H])C([H])([H])C([H])([H])C1([H])OC(=O)C([H])([H])C([H])(OC(=O)OC([H])([H])C([H])([H])[H])C([H])(C([H])([H])[H])C15[H]

$$$$
30:0:2
     RDKit          3D

 79 84  0  0  1  0  0  0  0  0999 V2000
    2.9385   -3.0671   -3.6858 C   0  0  0  0  0  0  0  0  0  0  0  0
    4.2928   -3.3299   -3.0004 C   0  0  0  0  0  0  0  0  0  0  0  0
    4.1426   -3.4054   -1.5871 O   0  0  0  0  0  0  0  0  0  0  0  0
    3.8694   -2.2909   -0.8889 C   0  0  0  0  0  0  0  0  0  0  0  0
    3.8256   -1.1505   -1.3432 O   0  0  0  0  0  0  0  0  0  0  0  0
    3.6307   -2.6650    0.3910 O   0  0  0  0  0  0  0  0  0  0  0  0
    3.0920   -1.7294    1.3334 C   0  0  2  0  0  0  0  0  0  0  0  0
    4.0608   -0.5528    1.6457 C   0  0  0  0  0  0  0  0  0  0  0  0
    5.2193   -0.9943    2.5111 C   0  0  0  0  0  0  0  0  0  0  0  0
    6.3544   -1.0786    2.0591 O   0  0  0  0  0  0  0  0  0  0  0  0
    4.8393   -1.3309    3.7424 O   0  0  0  0  0  0  0  0  0  0  0  0
    4.7858   -2.7100    4.0571 C   0  0  1  0  0  0  0  0  0  0  0  0
    4.7046   -2.9194    5.5711 C   0  0  0  0  0  0  0  0  0  0  0  0
    4.6914   -4.4184    5.9645 C   0  0  0  0  0  0  0  0  0  0  0  0
    4.0717   -5.4280    4.9209 C   0  0  1  0  0  0  0  0  0  0  0  0
    5.2354   -5.9247    4.0116 C   0  0  0  0  0  0  0  0  0  0  0  0
    3.3370   -6.6386    5.6358 C   0  0  2  0  0  0  0  0  0  0  0  0
    4.1632   -7.0118    6.7322 O   0  0  0  0  0  0  0  0  0  0  0  0
    3.3490   -7.9907    4.8587 C   0  0  0  0  0  0  0  0  0  0  0  0
    2.6043   -8.1283    3.5203 C   0  0  0  0  0  0  0  0  0  0  0  0
    1.1416   -7.6306    3.3816 C   0  0  2  0  0  0  0  0  0  0  0  0
    0.7780   -8.0006    1.9124 C   0  0  0  0  0  0  0  0  0  0  0  0
    1.0859   -6.0563    3.4066 C   0  0  1  0  0  0  0  0  0  0  0  0
    0.3201   -5.3530    4.5243 C   0  0  0  0  0  0  0  0  0  0  0  0
    1.2639   -5.0035    5.6314 C   0  0  2  0  0  0  0  0  0  0  0  0
    2.1326   -4.0689    5.0312 O   0  0  0  0  0  0  0  0  0  0  0  0
    3.0086   -4.6166    4.0919 C   0  0  2  0  0  0  0  0  0  0  0  0
    2.3583   -5.4335    3.1307 O   0  0  0  0  0  0  0  0  0  0  0  0
    3.6354   -3.4256    3.2776 C   0  0  1  0  0  0  0  0  0  0  0  0
    2.5513   -2.5176    2.5723 C   0  0  1  0  0  0  0  0  0  0  0  0
    1.7659   -1.5552    3.5026 C   0  0  0  0  0  0  0  0  0  0  0  0
    1.9752   -6.2009    6.2954 C   0  0  1  0  0  0  0  0  0  0  0  0
    0.9506   -7.2767    6.7686 C   0  0  0  0  0  0  0  0  0  0  0  0
    0.4876   -8.4819    5.8913 C   0  0  0  0  0  0  0  0  0  0  0  0
    0.1449   -8.3984    4.3578 C   0  0  1  0  0  0  0  0  0  0  0  0
   -1.3558   -8.0718    4.1072 C   0  0  0  0  0  0  0  0  0  0  0  0
    0.2100   -9.7751    4.0102 O   0  0  0  0  0  0  0  0  0  0  0  0
    3.0439   -3.0550   -4.7663 H   0  0  0  0  0  0  0  0  0  0  0  0
    2.4985   -2.1116   -3.3956 H   0  0  0  0  0  0  0  0  0  0  0  0
    2.2198   -3.8484   -3.4349 H   0  0  0  0  0  0  0  0  0  0  0  0
    4.6943   -4.2845   -3.3450 H   0  0  0  0  0  0  0  0  0  0  0  0
    5.0246   -2.5675   -3.2719 H   0  0  0  0  0  0  0  0  0  0  0  0
    2.2151   -1.2850    0.8621 H   0  0  0  0  0  0  0  0  0  0  0  0
    4.4744   -0.1168    0.7365 H   0  0  0  0  0  0  0  0  0  0  0  0
    3.5324    0.2529    2.1522 H   0  0  0  0  0  0  0  0  0  0  0  0
    5.7405   -3.1235    3.7339 H   0  0  0  0  0  0  0  0  0  0  0  0
    5.5401   -2.4183    6.0618 H   0  0  0  0  0  0  0  0  0  0  0  0
    3.8086   -2.4295    5.9538 H   0  0  0  0  0  0  0  0  0  0  0  0
    5.7112   -4.7314    6.1894 H   0  0  0  0  0  0  0  0  0  0  0  0
    4.1752   -4.4808    6.9223 H   0  0  0  0  0  0  0  0  0  0  0  0
    4.8936   -6.4585    3.1295 H   0  0  0  0  0  0  0  0  0  0  0  0
    5.8972   -6.5888    4.5685 H   0  0  0  0  0  0  0  0  0  0  0  0
    5.8772   -5.1304    3.6472 H   0  0  0  0  0  0  0  0  0  0  0  0
    3.7889   -7.7821    7.1351 H   0  0  0  0  0  0  0  0  0  0  0  0
    4.3789   -8.2771    4.6475 H   0  0  0  0  0  0  0  0  0  0  0  0
    3.0526   -8.8007    5.5132 H   0  0  0  0  0  0  0  0  0  0  0  0
    3.1978   -7.6746    2.7292 H   0  0  0  0  0  0  0  0  0  0  0  0
    2.6303   -9.1892    3.2682 H   0  0  0  0  0  0  0  0  0  0  0  0
   -0.2478   -7.7532    1.6442 H   0  0  0  0  0  0  0  0  0  0  0  0
    0.9019   -9.0638    1.7082 H   0  0  0  0  0  0  0  0  0  0  0  0
    1.4212   -7.4845    1.1996 H   0  0  0  0  0  0  0  0  0  0  0  0
    0.5057   -5.7638    2.5325 H   0  0  0  0  0  0  0  0  0  0  0  0
   -0.0898   -4.4203    4.1374 H   0  0  0  0  0  0  0  0  0  0  0  0
   -0.5327   -5.8886    4.9115 H   0  0  0  0  0  0  0  0  0  0  0  0
    0.6922   -4.4680    6.3917 H   0  0  0  0  0  0  0  0  0  0  0  0
    4.1522   -3.9247    2.4580 H   0  0  0  0  0  0  0  0  0  0  0  0
    1.8035   -3.1961    2.1574 H   0  0  0  0  0  0  0  0  0  0  0  0
    2.4124   -0.9102    4.0978 H   0  0  0  0  0  0  0  0  0  0  0  0
    1.1165   -2.0870    4.1946 H   0  0  0  0  0  0  0  0  0  0  0  0
    1.1166   -0.8999    2.9201 H   0  0  0  0  0  0  0  0  0  0  0  0
    2.2786   -5.7308    7.2317 H   0  0  0  0  0  0  0  0  0  0  0  0
    1.3614   -7.7155    7.6800 H   0  0  0  0  0  0  0  0  0  0  0  0
    0.0579   -6.7524    7.1146 H   0  0  0  0  0  0  0  0  0  0  0  0
    1.1864   -9.2972    6.0689 H   0  0  0  0  0  0  0  0  0  0  0  0
   -0.3993   -8.8808    6.3904 H   0  0  0  0  0  0  0  0  0  0  0  0
   -1.5135   -7.2825    3.3756 H   0  0  0  0  0  0  0  0  0  0  0  0
   -1.8322   -7.7320    5.0191 H   0  0  0  0  0  0  0  0  0  0  0  0
   -1.9334   -8.9342    3.7672 H   0  0  0  0  0  0  0  0  0  0  0  0
   -0.4659  -10.2453    4.4794 H   0  0  0  0  0  0  0  0  0  0  0  0
  1  2  1  0
  1 38  1  0
  1 39  1  0
  1 40  1  0
  2  3  1  0
  2 41  1  0
  2 42  1  0
  3  4  1  0
  4  5  2  0
  4  6  1  0
  6  7  1  0
  7 30  1  0
  7  8  1  0
  7 43  1  6
  8  9  1  0
  8 44  1  0
  8 45  1  0
  9 10  2  0
  9 11  1  0
 11 12  1  0
 12 29  1  0
 12 13  1  0
 12 46  1  6
 13 14  1  0
 13 47  1  0
 13 48  1  0
 14 15  1  0
 14 49  1  0
 14 50  1  0
 15 27  1  0
 15 16  1  6
 15 17  1  0
 16 51  1  0
 16 52  1  0
 16 53  1  0
 17 32  1  0
 17 18  1  1
 17 19  1  0
 18 54  1  0
 19 20  1  0
 19 55  1  0
 19 56  1  0
 20 21  1  0
 20 57  1  0
 20 58  1  0
 21 35  1  0
 21 22  1  6
 21 23  1  0
 22 59  1  0
 22 60  1  0
 22 61  1  0
 23 28  1  0
 23 24  1  0
 23 62  1  6
 24 25  1  0
 24 63  1  0
 24 64  1  0
 25 26  1  0
 25 32  1  0
 25 65  1  1
 27 26  1  1
 27 28  1  0
 27 29  1  0
 29 30  1  0
 29 66  1  6
 30 31  1  0
 30 67  1  6
 31 68  1  0
 31 69  1  0
 31 70  1  0
 32 33  1  0
 32 71  1  1
 33 34  1  0
 33 72  1  0
 33 73  1  0
 34 35  1  0
 34 74  1  0
 34 75  1  0
 35 36  1  0
 35 37  1  6
 36 76  1  0
 36 77  1  0
 36 78  1  0
 37 79  1  0
M  END
>  <i_m_ct_stereo_status>  (92) 
1

>  <s_m_source_file>  (92) 
/var/tmp/pbs.5076255.sched01/tmpgskxq70o/44i51uky9l.sdf

>  <i_m_source_file_index>  (92) 
2

>  <i_lp_mmshare_version>  (92) 
48012

>  <i_f3d_flags>  (92) 
0

>  <s_epik_input>  (92) 
W0NIM11bQ0gyXU9DKD1PKU9bQ0BIXShbQ0gyXUMoPU8pTzEpW0NASF0oW0NIM10pW0NASF0yW0NAQEhdMVtDSDJdW0NIMl1bQ0BAXShbQ0BdMjM0KShbQ0gzXSlbQ0BAXTUoW09IXSlbQ0BIXTZbQ0BASF0oTzMpW0NIMl1bQ0BASF0oTzQpW0NAQF0oW0NIM10pKFtDSDJdW0NIMl01KVtDQEBdKFtDSDNdKShbT0hdKVtDSDJdW0NIMl02

>  <s_epik_cmdline>  (92) 
J2VwaWtfcHl0aG9uJywgJy1waHQnLCAnMi4wJywgJy1waCcsICc3LjAnLCAnLXRuJywgJzgnLCAnLW1hJywgJzIwMCcsICctaW1hZScsICc8aW5maWxlLm1hZT4nLCAnLW9tYWUnLCAnPG91dGZpbGUubWFlPic=

>  <r_lp_tautomer_probability>  (92) 
1

>  <r_epik_Ionization_Penalty>  (92) 
5.08198e-07

>  <r_epik_Ionization_Penalty_Charging>  (92) 
0

>  <r_epik_Ionization_Penalty_Neutral>  (92) 
5.08198e-07

>  <r_epik_State_Penalty>  (92) 
-0

>  <r_epik_Charging_Adjusted_Penalty>  (92) 
0

>  <i_epik_Tot_Q>  (92) 
0

>  <i_epik_Tot_abs_Q>  (92) 
0

>  <s_epik_Chemistry_Notes>  (92) 
This compound has an ester and may undergo hydrolysis at high or low pH. This is carbonic acid which has a microscopic pka value of about 3.8 however its equilibrium with CO2 as a lewis acid yields a pKa of about 6.35.

>  <s_lp_Force_Field>  (92) 
OPLS3e

>  <r_lp_Energy>  (92) 
119.028

>  <b_lp_Chiralities_Consistent>  (92) 
1

>  <s_lp_Variant>  (92) 
30:0-1

>  <s_i_glide_gridfile>  (92) 
pfpi4k_grid

>  <i_i_glide_lignum>  (92) 
2

>  <i_i_glide_rotatable_bonds>  (92) 
6

>  <r_i_docking_score>  (92) 
-2.39455

>  <r_i_glide_ligand_efficiency>  (92) 
-0.0647175

>  <r_i_glide_ligand_efficiency_sa>  (92) 
-0.215653

>  <r_i_glide_ligand_efficiency_ln>  (92) 
-0.519322

>  <r_i_glide_gscore>  (92) 
-2.39455

>  <r_i_glide_lipo>  (92) 
-0.366497

>  <r_i_glide_hbond>  (92) 
-0.16

>  <r_i_glide_metal>  (92) 
-0

>  <r_i_glide_rewards>  (92) 
-0.154866

>  <r_i_glide_evdw>  (92) 
-34.701

>  <r_i_glide_ecoul>  (92) 
-1.10367

>  <r_i_glide_erotb>  (92) 
0.225874

>  <r_i_glide_esite>  (92) 
-0.0384582

>  <r_i_glide_emodel>  (92) 
-40.8148

>  <r_i_glide_energy>  (92) 
-35.8047

>  <r_i_glide_einternal>  (92) 
1.92053

>  <r_i_glide_intrahb_reward>  (92) 
-0

>  <i_i_glide_confnum>  (92) 
5

>  <i_i_glide_posenum>  (92) 
10

>  <r_i_glide_eff_state_penalty>  (92) 
0

>  <ligand_id>  (92) 
30

>  <original_smiles>  (92) 
CCOC(=O)OC1CC(=O)OC2CCC3(C)C4(O)CCC5(C)C6CC(OC3(O6)C2C1C)C4CCC5(C)O

>  <smiles>  (92) 
[H]OC1(C([H])([H])[H])C([H])([H])C([H])([H])C2([H])C3([H])OC45OC([H])(C3([H])[H])C1(C([H])([H])[H])C([H])([H])C([H])([H])C2(O[H])C4(C([H])([H])[H])C([H])([H])C([H])([H])C1([H])OC(=O)C([H])([H])C([H])(OC(=O)OC([H])([H])C([H])([H])[H])C([H])(C([H])([H])[H])C15[H]

$$$$
31:0:0
     RDKit          3D

 80 84  0  0  1  0  0  0  0  0999 V2000
    4.6131   -3.4783   -3.4987 C   0  0  0  0  0  0  0  0  0  0  0  0
    4.2674   -2.4201   -2.7608 C   0  0  0  0  0  0  0  0  0  0  0  0
    4.1997   -1.0425   -3.4131 C   0  0  0  0  0  0  0  0  0  0  0  0
    3.9214   -2.5137   -1.2469 C   0  0  2  0  0  0  0  0  0  0  0  0
    4.1372   -1.2184   -0.4081 C   0  0  0  0  0  0  0  0  0  0  0  0
    5.3096   -1.4696    0.5532 C   0  0  0  0  0  0  0  0  0  0  0  0
    5.9375   -2.8414    0.2050 C   0  0  1  0  0  0  0  0  0  0  0  0
    7.0821   -2.6608   -0.8291 C   0  0  0  0  0  0  0  0  0  0  0  0
    6.8672   -1.8636   -1.7530 O   0  0  0  0  0  0  0  0  0  0  0  0
    8.1681   -3.2452   -0.6743 O   0  0  0  0  0  0  0  0  0  0  0  0
    6.5359   -3.5300    1.4636 C   0  0  0  0  0  0  0  0  0  0  0  0
    5.6037   -4.3959    2.3142 C   0  0  0  0  0  0  0  0  0  0  0  0
    4.7143   -5.3708    1.4766 C   0  0  2  0  0  0  0  0  0  0  0  0
    5.6015   -6.2487    0.5528 C   0  0  0  0  0  0  0  0  0  0  0  0
    3.8581   -4.4636    0.5392 C   0  0  1  0  0  0  0  0  0  0  0  0
    2.8210   -3.6875    1.3648 C   0  0  0  0  0  0  0  0  0  0  0  0
    1.9571   -4.6362    2.1880 C   0  0  0  0  0  0  0  0  0  0  0  0
    2.7234   -5.5160    3.2130 C   0  0  1  0  0  0  0  0  0  0  0  0
    1.6975   -6.3632    4.0979 C   0  0  2  0  0  0  0  0  0  0  0  0
    0.6703   -5.3388    4.6693 C   0  0  0  0  0  0  0  0  0  0  0  0
    2.3383   -7.0382    5.3515 C   0  0  0  0  0  0  0  0  0  0  0  0
    1.3856   -7.9522    6.1503 C   0  0  0  0  0  0  0  0  0  0  0  0
    0.7275   -9.0219    5.2648 C   0  0  1  0  0  0  0  0  0  0  0  0
   -0.1840   -9.6968    6.1128 O   0  0  0  0  0  0  0  0  0  0  0  0
    0.0394   -8.4474    3.9891 C   0  0  0  0  0  0  0  0  0  0  0  0
   -0.3624   -9.6204    3.0646 C   0  0  0  0  0  0  0  0  0  0  0  0
   -1.2903   -7.7207    4.3414 C   0  0  0  0  0  0  0  0  0  0  0  0
    1.0356   -7.4925    3.2227 C   0  0  2  0  0  0  0  0  0  0  0  0
    2.1440   -8.2935    2.4722 C   0  0  0  0  0  0  0  0  0  0  0  0
    3.1220   -7.4386    1.6533 C   0  0  0  0  0  0  0  0  0  0  0  0
    3.8463   -6.3167    2.4470 C   0  0  1  0  0  0  0  0  0  0  0  0
    4.8447   -6.9788    3.4461 C   0  0  0  0  0  0  0  0  0  0  0  0
    4.7331   -3.5937   -0.4466 C   0  0  1  0  0  0  0  0  0  0  0  0
    4.8733   -3.3717   -4.5440 H   0  0  0  0  0  0  0  0  0  0  0  0
    4.6541   -4.4889   -3.1077 H   0  0  0  0  0  0  0  0  0  0  0  0
    4.9249   -0.3674   -2.9758 H   0  0  0  0  0  0  0  0  0  0  0  0
    3.2017   -0.6112   -3.3083 H   0  0  0  0  0  0  0  0  0  0  0  0
    4.4451   -1.0972   -4.4736 H   0  0  0  0  0  0  0  0  0  0  0  0
    2.8595   -2.7524   -1.2745 H   0  0  0  0  0  0  0  0  0  0  0  0
    4.3165   -0.2999   -0.9637 H   0  0  0  0  0  0  0  0  0  0  0  0
    3.2325   -1.0157    0.1711 H   0  0  0  0  0  0  0  0  0  0  0  0
    6.0382   -0.6524    0.5191 H   0  0  0  0  0  0  0  0  0  0  0  0
    4.9180   -1.4835    1.5657 H   0  0  0  0  0  0  0  0  0  0  0  0
    7.3759   -4.1932    1.2455 H   0  0  0  0  0  0  0  0  0  0  0  0
    6.9472   -2.7435    2.0892 H   0  0  0  0  0  0  0  0  0  0  0  0
    6.2569   -4.9318    2.9998 H   0  0  0  0  0  0  0  0  0  0  0  0
    5.0010   -3.7480    2.9437 H   0  0  0  0  0  0  0  0  0  0  0  0
    4.9936   -6.7497   -0.2111 H   0  0  0  0  0  0  0  0  0  0  0  0
    6.1676   -7.0260    1.0690 H   0  0  0  0  0  0  0  0  0  0  0  0
    6.3513   -5.6901    0.0101 H   0  0  0  0  0  0  0  0  0  0  0  0
    3.2782   -5.1014   -0.1287 H   0  0  0  0  0  0  0  0  0  0  0  0
    3.2696   -2.9508    2.0300 H   0  0  0  0  0  0  0  0  0  0  0  0
    2.1542   -3.1184    0.7152 H   0  0  0  0  0  0  0  0  0  0  0  0
    1.2239   -3.9929    2.6723 H   0  0  0  0  0  0  0  0  0  0  0  0
    1.4120   -5.2675    1.4928 H   0  0  0  0  0  0  0  0  0  0  0  0
    3.2169   -4.8230    3.8899 H   0  0  0  0  0  0  0  0  0  0  0  0
    0.2098   -5.6334    5.6051 H   0  0  0  0  0  0  0  0  0  0  0  0
   -0.1448   -5.1439    3.9724 H   0  0  0  0  0  0  0  0  0  0  0  0
    1.1515   -4.3876    4.8970 H   0  0  0  0  0  0  0  0  0  0  0  0
    3.1304   -7.7154    5.0727 H   0  0  0  0  0  0  0  0  0  0  0  0
    2.7873   -6.2876    6.0070 H   0  0  0  0  0  0  0  0  0  0  0  0
    1.9576   -8.4532    6.9340 H   0  0  0  0  0  0  0  0  0  0  0  0
    0.6313   -7.3772    6.6881 H   0  0  0  0  0  0  0  0  0  0  0  0
    1.5012   -9.7340    4.9626 H   0  0  0  0  0  0  0  0  0  0  0  0
   -0.7713  -10.2513    5.5971 H   0  0  0  0  0  0  0  0  0  0  0  0
   -0.7116   -9.2769    2.0871 H   0  0  0  0  0  0  0  0  0  0  0  0
   -1.1750  -10.1952    3.4890 H   0  0  0  0  0  0  0  0  0  0  0  0
    0.4492  -10.3390    2.9354 H   0  0  0  0  0  0  0  0  0  0  0  0
   -1.6190   -7.0478    3.5470 H   0  0  0  0  0  0  0  0  0  0  0  0
   -1.2107   -7.1402    5.2539 H   0  0  0  0  0  0  0  0  0  0  0  0
   -2.1042   -8.4301    4.5204 H   0  0  0  0  0  0  0  0  0  0  0  0
    0.4369   -7.0244    2.4427 H   0  0  0  0  0  0  0  0  0  0  0  0
    2.6940   -8.9195    3.1725 H   0  0  0  0  0  0  0  0  0  0  0  0
    1.6991   -8.9824    1.7570 H   0  0  0  0  0  0  0  0  0  0  0  0
    3.8448   -8.1192    1.1998 H   0  0  0  0  0  0  0  0  0  0  0  0
    2.5609   -7.0089    0.8276 H   0  0  0  0  0  0  0  0  0  0  0  0
    4.6116   -8.0179    3.6524 H   0  0  0  0  0  0  0  0  0  0  0  0
    4.8821   -6.4247    4.3838 H   0  0  0  0  0  0  0  0  0  0  0  0
    5.8734   -7.0224    3.0972 H   0  0  0  0  0  0  0  0  0  0  0  0
    5.1735   -4.3215   -1.1205 H   0  0  0  0  0  0  0  0  0  0  0  0
  1  2  2  0
  1 34  1  0
  1 35  1  0
  2  3  1  0
  2  4  1  0
  3 36  1  0
  3 37  1  0
  3 38  1  0
  4 33  1  0
  4  5  1  0
  4 39  1  6
  5  6  1  0
  5 40  1  0
  5 41  1  0
  6  7  1  0
  6 42  1  0
  6 43  1  0
  7 33  1  0
  7  8  1  6
  7 11  1  0
  8  9  2  0
  8 10  1  0
 11 12  1  0
 11 44  1  0
 11 45  1  0
 12 13  1  0
 12 46  1  0
 12 47  1  0
 13 31  1  0
 13 14  1  6
 13 15  1  0
 14 48  1  0
 14 49  1  0
 14 50  1  0
 15 16  1  0
 15 33  1  0
 15 51  1  6
 16 17  1  0
 16 52  1  0
 16 53  1  0
 17 18  1  0
 17 54  1  0
 17 55  1  0
 18 31  1  0
 18 19  1  0
 18 56  1  1
 19 28  1  0
 19 20  1  1
 19 21  1  0
 20 57  1  0
 20 58  1  0
 20 59  1  0
 21 22  1  0
 21 60  1  0
 21 61  1  0
 22 23  1  0
 22 62  1  0
 22 63  1  0
 23 24  1  0
 23 25  1  0
 23 64  1  6
 24 65  1  0
 25 26  1  0
 25 27  1  0
 25 28  1  0
 26 66  1  0
 26 67  1  0
 26 68  1  0
 27 69  1  0
 27 70  1  0
 27 71  1  0
 28 29  1  0
 28 72  1  6
 29 30  1  0
 29 73  1  0
 29 74  1  0
 30 31  1  0
 30 75  1  0
 30 76  1  0
 31 32  1  1
 32 77  1  0
 32 78  1  0
 32 79  1  0
 33 80  1  6
M  CHG  1  10  -1
M  END
>  <i_m_ct_stereo_status>  (93) 
1

>  <s_m_source_file>  (93) 
/var/tmp/pbs.5076255.sched01/tmpgskxq70o/44i51uky9l.sdf

>  <i_m_source_file_index>  (93) 
3

>  <i_lp_mmshare_version>  (93) 
48012

>  <i_f3d_flags>  (93) 
0

>  <s_epik_input>  (93) 
W0NIMl09QyhbQ0gzXSlbQ0BIXShbQ0gyXVtDSDJdMSlbQ0BASF0oW0NAQF0xMkMoPU8pW09IXSlbQ0BIXTNbQ0BAXShbQ0gzXSkoW0NIMl1bQ0gyXTIpW0NAQF00KFtDSDNdKVtDQEBIXShbQ0gyXVtDSDJdMylbQ0BAXTUoW0NIM10pW0NAQEhdKFtDSDJdW0NIMl00KUMoW0NIM10pKFtDSDNdKVtDQEhdKFtPSF0pW0NIMl1bQ0gyXTU=

>  <s_epik_cmdline>  (93) 
J2VwaWtfcHl0aG9uJywgJy1waHQnLCAnMi4wJywgJy1waCcsICc3LjAnLCAnLXRuJywgJzgnLCAnLW1hJywgJzIwMCcsICctaW1hZScsICc8aW5maWxlLm1hZT4nLCAnLW9tYWUnLCAnPG91dGZpbGUubWFlPic=

>  <r_epik_Ionization_Penalty>  (93) 
0.00776297

>  <r_epik_Ionization_Penalty_Charging>  (93) 
0.00775979

>  <r_epik_Ionization_Penalty_Neutral>  (93) 
3.18347e-06

>  <r_epik_State_Penalty>  (93) 
0.00581373

>  <r_epik_Charging_Adjusted_Penalty>  (93) 
0.0135735

>  <i_epik_Tot_Q>  (93) 
-1

>  <i_epik_Tot_abs_Q>  (93) 
1

>  <s_lp_Force_Field>  (93) 
OPLS3e

>  <r_lp_Energy>  (93) 
104.174

>  <b_lp_Chiralities_Consistent>  (93) 
1

>  <s_lp_Variant>  (93) 
31:0-1

>  <s_i_glide_gridfile>  (93) 
pfpi4k_grid

>  <i_i_glide_lignum>  (93) 
3

>  <i_i_glide_rotatable_bonds>  (93) 
3

>  <r_i_docking_score>  (93) 
-3.95688

>  <r_i_glide_ligand_efficiency>  (93) 
-0.119906

>  <r_i_glide_ligand_efficiency_sa>  (93) 
-0.384601

>  <r_i_glide_ligand_efficiency_ln>  (93) 
-0.87999

>  <r_i_glide_gscore>  (93) 
-3.95688

>  <r_i_glide_lipo>  (93) 
-0.907627

>  <r_i_glide_hbond>  (93) 
-0.36

>  <r_i_glide_metal>  (93) 
-0

>  <r_i_glide_rewards>  (93) 
-0.302097

>  <r_i_glide_evdw>  (93) 
-30.036

>  <r_i_glide_ecoul>  (93) 
-6.37839

>  <r_i_glide_erotb>  (93) 
0.096752

>  <r_i_glide_esite>  (93) 
-0.0253522

>  <r_i_glide_emodel>  (93) 
-40.993

>  <r_i_glide_energy>  (93) 
-36.4144

>  <r_i_glide_einternal>  (93) 
9.07143

>  <r_i_glide_intrahb_reward>  (93) 
-0

>  <i_i_glide_confnum>  (93) 
2

>  <i_i_glide_posenum>  (93) 
25

>  <r_i_glide_eff_state_penalty>  (93) 
0

>  <ligand_id>  (93) 
31

>  <original_smiles>  (93) 
C=C(C)C1CCC2(C(=O)O)CCC3(C)C(CCC4C5(C)CCC(O)C(C)(C)C5CCC43C)C12

>  <smiles>  (93) 
[H]OC1([H])C([H])([H])C([H])([H])C2(C([H])([H])[H])C([H])(C([H])([H])C([H])([H])C3(C([H])([H])[H])C2([H])C([H])([H])C([H])([H])C2([H])C4([H])C([H])(C(=C([H])[H])C([H])([H])[H])C([H])([H])C([H])([H])C4(C(=O)[O-])C([H])([H])C([H])([H])C23C([H])([H])[H])C1(C([H])([H])[H])C([H])([H])[H]

$$$$
31:0:1
     RDKit          3D

 80 84  0  0  1  0  0  0  0  0999 V2000
    3.0291   -2.6143   -3.2698 C   0  0  0  0  0  0  0  0  0  0  0  0
    3.6786   -1.8678   -2.3442 C   0  0  0  0  0  0  0  0  0  0  0  0
    4.5679   -0.7011   -2.7692 C   0  0  0  0  0  0  0  0  0  0  0  0
    3.5124   -2.1906   -0.8488 C   0  0  2  0  0  0  0  0  0  0  0  0
    3.8379   -1.0254    0.1199 C   0  0  0  0  0  0  0  0  0  0  0  0
    5.1465   -1.3823    0.8327 C   0  0  0  0  0  0  0  0  0  0  0  0
    5.6582   -2.7088    0.2475 C   0  0  1  0  0  0  0  0  0  0  0  0
    6.7156   -2.4544   -0.8545 C   0  0  0  0  0  0  0  0  0  0  0  0
    6.5701   -2.9479   -1.9855 O   0  0  0  0  0  0  0  0  0  0  0  0
    7.7429   -1.8521   -0.4817 O   0  0  0  0  0  0  0  0  0  0  0  0
    6.4617   -3.5045    1.3070 C   0  0  0  0  0  0  0  0  0  0  0  0
    5.6657   -4.4754    2.1813 C   0  0  0  0  0  0  0  0  0  0  0  0
    4.6384   -5.3467    1.3853 C   0  0  2  0  0  0  0  0  0  0  0  0
    5.3816   -6.1048    0.2554 C   0  0  0  0  0  0  0  0  0  0  0  0
    3.6563   -4.3464    0.6861 C   0  0  1  0  0  0  0  0  0  0  0  0
    2.7527   -3.6747    1.7387 C   0  0  0  0  0  0  0  0  0  0  0  0
    2.0003   -4.7089    2.5557 C   0  0  0  0  0  0  0  0  0  0  0  0
    2.9070   -5.6992    3.3499 C   0  0  1  0  0  0  0  0  0  0  0  0
    2.0224   -6.6541    4.2718 C   0  0  2  0  0  0  0  0  0  0  0  0
    1.0867   -5.7134    5.0889 C   0  0  0  0  0  0  0  0  0  0  0  0
    2.8363   -7.4599    5.3348 C   0  0  0  0  0  0  0  0  0  0  0  0
    2.0070   -8.4690    6.1566 C   0  0  0  0  0  0  0  0  0  0  0  0
    1.2290   -9.4442    5.2506 C   0  0  1  0  0  0  0  0  0  0  0  0
    0.4254  -10.2122    6.1228 O   0  0  0  0  0  0  0  0  0  0  0  0
    0.3605   -8.7447    4.1474 C   0  0  0  0  0  0  0  0  0  0  0  0
   -0.1689   -9.8018    3.1249 C   0  0  0  0  0  0  0  0  0  0  0  0
   -0.8832   -8.0681    4.7725 C   0  0  0  0  0  0  0  0  0  0  0  0
    1.2426   -7.6892    3.3732 C   0  0  2  0  0  0  0  0  0  0  0  0
    2.2294   -8.3830    2.3902 C   0  0  0  0  0  0  0  0  0  0  0  0
    3.0792   -7.4275    1.5435 C   0  0  0  0  0  0  0  0  0  0  0  0
    3.9127   -6.4006    2.3526 C   0  0  1  0  0  0  0  0  0  0  0  0
    5.0391   -7.1643    3.1190 C   0  0  0  0  0  0  0  0  0  0  0  0
    4.3854   -3.3714   -0.3259 C   0  0  1  0  0  0  0  0  0  0  0  0
    3.1410   -2.3922   -4.3162 H   0  0  0  0  0  0  0  0  0  0  0  0
    2.3707   -3.4412   -3.0171 H   0  0  0  0  0  0  0  0  0  0  0  0
    5.5629   -0.8214   -2.3513 H   0  0  0  0  0  0  0  0  0  0  0  0
    4.0850    0.2549   -2.5154 H   0  0  0  0  0  0  0  0  0  0  0  0
    4.6049   -0.6837   -3.8683 H   0  0  0  0  0  0  0  0  0  0  0  0
    2.4630   -2.4906   -0.7611 H   0  0  0  0  0  0  0  0  0  0  0  0
    3.9678   -0.0535   -0.3388 H   0  0  0  0  0  0  0  0  0  0  0  0
    3.0116   -0.8873    0.8296 H   0  0  0  0  0  0  0  0  0  0  0  0
    5.8566   -0.5488    0.7903 H   0  0  0  0  0  0  0  0  0  0  0  0
    4.8995   -1.4946    1.8858 H   0  0  0  0  0  0  0  0  0  0  0  0
    7.2718   -4.0793    0.8641 H   0  0  0  0  0  0  0  0  0  0  0  0
    6.9707   -2.7843    1.9495 H   0  0  0  0  0  0  0  0  0  0  0  0
    6.4153   -5.0720    2.7053 H   0  0  0  0  0  0  0  0  0  0  0  0
    5.1671   -3.8972    2.9533 H   0  0  0  0  0  0  0  0  0  0  0  0
    4.6883   -6.5181   -0.4754 H   0  0  0  0  0  0  0  0  0  0  0  0
    6.0131   -6.9162    0.6076 H   0  0  0  0  0  0  0  0  0  0  0  0
    6.0533   -5.4573   -0.3105 H   0  0  0  0  0  0  0  0  0  0  0  0
    2.9865   -4.9198    0.0416 H   0  0  0  0  0  0  0  0  0  0  0  0
    3.3074   -3.0236    2.4101 H   0  0  0  0  0  0  0  0  0  0  0  0
    2.0091   -3.0351    1.2593 H   0  0  0  0  0  0  0  0  0  0  0  0
    1.3482   -4.1294    3.2056 H   0  0  0  0  0  0  0  0  0  0  0  0
    1.3456   -5.2565    1.8837 H   0  0  0  0  0  0  0  0  0  0  0  0
    3.5010   -5.0868    4.0271 H   0  0  0  0  0  0  0  0  0  0  0  0
    0.7639   -6.1176    6.0434 H   0  0  0  0  0  0  0  0  0  0  0  0
    0.1864   -5.4456    4.5367 H   0  0  0  0  0  0  0  0  0  0  0  0
    1.6033   -4.7948    5.3609 H   0  0  0  0  0  0  0  0  0  0  0  0
    3.5703   -8.1024    4.8734 H   0  0  0  0  0  0  0  0  0  0  0  0
    3.3781   -6.7878    6.0061 H   0  0  0  0  0  0  0  0  0  0  0  0
    2.6785   -9.0538    6.7919 H   0  0  0  0  0  0  0  0  0  0  0  0
    1.3346   -7.9701    6.8547 H   0  0  0  0  0  0  0  0  0  0  0  0
    1.9509  -10.1091    4.7605 H   0  0  0  0  0  0  0  0  0  0  0  0
    0.9576  -10.8806    6.5537 H   0  0  0  0  0  0  0  0  0  0  0  0
   -0.6299   -9.3163    2.2599 H   0  0  0  0  0  0  0  0  0  0  0  0
   -0.9802  -10.4445    3.4294 H   0  0  0  0  0  0  0  0  0  0  0  0
    0.6232  -10.4957    2.8332 H   0  0  0  0  0  0  0  0  0  0  0  0
   -1.3204   -7.2956    4.1369 H   0  0  0  0  0  0  0  0  0  0  0  0
   -0.6279   -7.6149    5.7181 H   0  0  0  0  0  0  0  0  0  0  0  0
   -1.6814   -8.7784    4.9982 H   0  0  0  0  0  0  0  0  0  0  0  0
    0.5379   -7.1415    2.7493 H   0  0  0  0  0  0  0  0  0  0  0  0
    2.8638   -9.0827    2.9271 H   0  0  0  0  0  0  0  0  0  0  0  0
    1.6838   -8.9931    1.6660 H   0  0  0  0  0  0  0  0  0  0  0  0
    3.7289   -8.0457    0.9183 H   0  0  0  0  0  0  0  0  0  0  0  0
    2.4085   -6.9162    0.8601 H   0  0  0  0  0  0  0  0  0  0  0  0
    4.8340   -8.2228    3.2325 H   0  0  0  0  0  0  0  0  0  0  0  0
    5.2157   -6.7230    4.0999 H   0  0  0  0  0  0  0  0  0  0  0  0
    6.0093   -7.1590    2.6276 H   0  0  0  0  0  0  0  0  0  0  0  0
    4.5973   -4.0093   -1.1903 H   0  0  0  0  0  0  0  0  0  0  0  0
  1  2  2  0
  1 34  1  0
  1 35  1  0
  2  3  1  0
  2  4  1  0
  3 36  1  0
  3 37  1  0
  3 38  1  0
  4 33  1  0
  4  5  1  0
  4 39  1  6
  5  6  1  0
  5 40  1  0
  5 41  1  0
  6  7  1  0
  6 42  1  0
  6 43  1  0
  7 33  1  0
  7  8  1  6
  7 11  1  0
  8  9  2  0
  8 10  1  0
 11 12  1  0
 11 44  1  0
 11 45  1  0
 12 13  1  0
 12 46  1  0
 12 47  1  0
 13 31  1  0
 13 14  1  6
 13 15  1  0
 14 48  1  0
 14 49  1  0
 14 50  1  0
 15 16  1  0
 15 33  1  0
 15 51  1  6
 16 17  1  0
 16 52  1  0
 16 53  1  0
 17 18  1  0
 17 54  1  0
 17 55  1  0
 18 31  1  0
 18 19  1  0
 18 56  1  1
 19 28  1  0
 19 20  1  1
 19 21  1  0
 20 57  1  0
 20 58  1  0
 20 59  1  0
 21 22  1  0
 21 60  1  0
 21 61  1  0
 22 23  1  0
 22 62  1  0
 22 63  1  0
 23 24  1  0
 23 25  1  0
 23 64  1  6
 24 65  1  0
 25 26  1  0
 25 27  1  0
 25 28  1  0
 26 66  1  0
 26 67  1  0
 26 68  1  0
 27 69  1  0
 27 70  1  0
 27 71  1  0
 28 29  1  0
 28 72  1  6
 29 30  1  0
 29 73  1  0
 29 74  1  0
 30 31  1  0
 30 75  1  0
 30 76  1  0
 31 32  1  1
 32 77  1  0
 32 78  1  0
 32 79  1  0
 33 80  1  6
M  CHG  1  10  -1
M  END
>  <i_m_ct_stereo_status>  (94) 
1

>  <s_m_source_file>  (94) 
/var/tmp/pbs.5076255.sched01/tmpgskxq70o/44i51uky9l.sdf

>  <i_m_source_file_index>  (94) 
3

>  <i_lp_mmshare_version>  (94) 
48012

>  <i_f3d_flags>  (94) 
0

>  <s_epik_input>  (94) 
W0NIMl09QyhbQ0gzXSlbQ0BIXShbQ0gyXVtDSDJdMSlbQ0BASF0oW0NAQF0xMkMoPU8pW09IXSlbQ0BIXTNbQ0BAXShbQ0gzXSkoW0NIMl1bQ0gyXTIpW0NAQF00KFtDSDNdKVtDQEBIXShbQ0gyXVtDSDJdMylbQ0BAXTUoW0NIM10pW0NAQEhdKFtDSDJdW0NIMl00KUMoW0NIM10pKFtDSDNdKVtDQEhdKFtPSF0pW0NIMl1bQ0gyXTU=

>  <s_epik_cmdline>  (94) 
J2VwaWtfcHl0aG9uJywgJy1waHQnLCAnMi4wJywgJy1waCcsICc3LjAnLCAnLXRuJywgJzgnLCAnLW1hJywgJzIwMCcsICctaW1hZScsICc8aW5maWxlLm1hZT4nLCAnLW9tYWUnLCAnPG91dGZpbGUubWFlPic=

>  <r_epik_Ionization_Penalty>  (94) 
0.00776297

>  <r_epik_Ionization_Penalty_Charging>  (94) 
0.00775979

>  <r_epik_Ionization_Penalty_Neutral>  (94) 
3.18347e-06

>  <r_epik_State_Penalty>  (94) 
0.00581373

>  <r_epik_Charging_Adjusted_Penalty>  (94) 
0.0135735

>  <i_epik_Tot_Q>  (94) 
-1

>  <i_epik_Tot_abs_Q>  (94) 
1

>  <s_lp_Force_Field>  (94) 
OPLS3e

>  <r_lp_Energy>  (94) 
104.174

>  <b_lp_Chiralities_Consistent>  (94) 
1

>  <s_lp_Variant>  (94) 
31:0-1

>  <s_i_glide_gridfile>  (94) 
pfpi4k_grid

>  <i_i_glide_lignum>  (94) 
3

>  <i_i_glide_rotatable_bonds>  (94) 
3

>  <r_i_docking_score>  (94) 
-3.11638

>  <r_i_glide_ligand_efficiency>  (94) 
-0.0944358

>  <r_i_glide_ligand_efficiency_sa>  (94) 
-0.302906

>  <r_i_glide_ligand_efficiency_ln>  (94) 
-0.693067

>  <r_i_glide_gscore>  (94) 
-3.11638

>  <r_i_glide_lipo>  (94) 
-0.578451

>  <r_i_glide_hbond>  (94) 
-0.347122

>  <r_i_glide_metal>  (94) 
-0

>  <r_i_glide_rewards>  (94) 
-0.302097

>  <r_i_glide_evdw>  (94) 
-28.2959

>  <r_i_glide_ecoul>  (94) 
-3.54295

>  <r_i_glide_erotb>  (94) 
0.096752

>  <r_i_glide_esite>  (94) 
-0.0392241

>  <r_i_glide_emodel>  (94) 
-35.3877

>  <r_i_glide_energy>  (94) 
-31.8389

>  <r_i_glide_einternal>  (94) 
5.57808

>  <r_i_glide_intrahb_reward>  (94) 
-0

>  <i_i_glide_confnum>  (94) 
6

>  <i_i_glide_posenum>  (94) 
11

>  <r_i_glide_eff_state_penalty>  (94) 
0

>  <ligand_id>  (94) 
31

>  <original_smiles>  (94) 
C=C(C)C1CCC2(C(=O)O)CCC3(C)C(CCC4C5(C)CCC(O)C(C)(C)C5CCC43C)C12

>  <smiles>  (94) 
[H]OC1([H])C([H])([H])C([H])([H])C2(C([H])([H])[H])C([H])(C([H])([H])C([H])([H])C3(C([H])([H])[H])C2([H])C([H])([H])C([H])([H])C2([H])C4([H])C([H])(C(=C([H])[H])C([H])([H])[H])C([H])([H])C([H])([H])C4(C(=O)[O-])C([H])([H])C([H])([H])C23C([H])([H])[H])C1(C([H])([H])[H])C([H])([H])[H]

$$$$
31:0:2
     RDKit          3D

 80 84  0  0  1  0  0  0  0  0999 V2000
    2.3639    0.4456    1.0328 C   0  0  0  0  0  0  0  0  0  0  0  0
    2.6689    0.2769    2.2988 C   0  0  0  0  0  0  0  0  0  0  0  0
    2.3620    1.4569    3.2317 C   0  0  0  0  0  0  0  0  0  0  0  0
    3.2600   -0.9867    2.8896 C   0  0  2  0  0  0  0  0  0  0  0  0
    4.4984   -0.7180    3.7332 C   0  0  0  0  0  0  0  0  0  0  0  0
    5.6816   -1.3710    2.9991 C   0  0  0  0  0  0  0  0  0  0  0  0
    5.2442   -1.9157    1.6309 C   0  0  1  0  0  0  0  0  0  0  0  0
    5.4642   -0.8324    0.5458 C   0  0  0  0  0  0  0  0  0  0  0  0
    5.7874   -1.0993   -0.6227 O   0  0  0  0  0  0  0  0  0  0  0  0
    5.3609    0.3440    0.9116 O   0  0  0  0  0  0  0  0  0  0  0  0
    6.0438   -3.1715    1.1750 C   0  0  0  0  0  0  0  0  0  0  0  0
    5.4666   -4.5125    1.5733 C   0  0  0  0  0  0  0  0  0  0  0  0
    3.9232   -4.6294    1.3865 C   0  0  2  0  0  0  0  0  0  0  0  0
    3.5158   -4.2749   -0.0866 C   0  0  0  0  0  0  0  0  0  0  0  0
    3.2772   -3.5478    2.3015 C   0  0  1  0  0  0  0  0  0  0  0  0
    3.4598   -3.8865    3.7898 C   0  0  0  0  0  0  0  0  0  0  0  0
    2.8932   -5.2638    4.0986 C   0  0  0  0  0  0  0  0  0  0  0  0
    3.5417   -6.4328    3.2790 C   0  0  1  0  0  0  0  0  0  0  0  0
    2.9798   -7.8432    3.7676 C   0  0  2  0  0  0  0  0  0  0  0  0
    3.1552   -7.8435    5.3153 C   0  0  0  0  0  0  0  0  0  0  0  0
    3.7902   -9.0808    3.2647 C   0  0  0  0  0  0  0  0  0  0  0  0
    3.1842  -10.4413    3.6415 C   0  0  0  0  0  0  0  0  0  0  0  0
    1.7188  -10.5497    3.1964 C   0  0  1  0  0  0  0  0  0  0  0  0
    1.1878  -11.7706    3.6756 O   0  0  0  0  0  0  0  0  0  0  0  0
    0.8314   -9.3714    3.6855 C   0  0  0  0  0  0  0  0  0  0  0  0
   -0.5495   -9.4650    2.9925 C   0  0  0  0  0  0  0  0  0  0  0  0
    0.5648   -9.4797    5.2114 C   0  0  0  0  0  0  0  0  0  0  0  0
    1.4856   -7.9965    3.3039 C   0  0  2  0  0  0  0  0  0  0  0  0
    1.3638   -7.6902    1.7856 C   0  0  0  0  0  0  0  0  0  0  0  0
    1.9444   -6.3414    1.3382 C   0  0  0  0  0  0  0  0  0  0  0  0
    3.4362   -6.1095    1.7320 C   0  0  1  0  0  0  0  0  0  0  0  0
    4.3269   -7.0846    0.8944 C   0  0  0  0  0  0  0  0  0  0  0  0
    3.7076   -2.1076    1.8780 C   0  0  1  0  0  0  0  0  0  0  0  0
    1.8259    1.3378    0.8541 H   0  0  0  0  0  0  0  0  0  0  0  0
    2.5802   -0.2323    0.1898 H   0  0  0  0  0  0  0  0  0  0  0  0
    3.2535    1.8742    3.6991 H   0  0  0  0  0  0  0  0  0  0  0  0
    1.6468    1.1768    3.9908 H   0  0  0  0  0  0  0  0  0  0  0  0
    1.9450    2.2953    2.6762 H   0  0  0  0  0  0  0  0  0  0  0  0
    2.4427   -1.3218    3.4966 H   0  0  0  0  0  0  0  0  0  0  0  0
    4.7242    0.3305    3.9020 H   0  0  0  0  0  0  0  0  0  0  0  0
    4.3931   -1.1721    4.7140 H   0  0  0  0  0  0  0  0  0  0  0  0
    6.5301   -0.6938    2.9385 H   0  0  0  0  0  0  0  0  0  0  0  0
    5.9598   -2.2334    3.6131 H   0  0  0  0  0  0  0  0  0  0  0  0
    6.1260   -3.2501    0.0933 H   0  0  0  0  0  0  0  0  0  0  0  0
    7.0655   -3.0696    1.5216 H   0  0  0  0  0  0  0  0  0  0  0  0
    6.0166   -5.2351    0.9766 H   0  0  0  0  0  0  0  0  0  0  0  0
    5.7583   -4.7151    2.6008 H   0  0  0  0  0  0  0  0  0  0  0  0
    2.4412   -4.1377   -0.1976 H   0  0  0  0  0  0  0  0  0  0  0  0
    3.8239   -5.0232   -0.8017 H   0  0  0  0  0  0  0  0  0  0  0  0
    3.9640   -3.3666   -0.4628 H   0  0  0  0  0  0  0  0  0  0  0  0
    2.2012   -3.5443    2.1530 H   0  0  0  0  0  0  0  0  0  0  0  0
    4.4998   -3.8587    4.1098 H   0  0  0  0  0  0  0  0  0  0  0  0
    2.9274   -3.1863    4.4285 H   0  0  0  0  0  0  0  0  0  0  0  0
    3.0257   -5.3875    5.1743 H   0  0  0  0  0  0  0  0  0  0  0  0
    1.8120   -5.2317    3.9300 H   0  0  0  0  0  0  0  0  0  0  0  0
    4.6039   -6.4232    3.5350 H   0  0  0  0  0  0  0  0  0  0  0  0
    3.2491   -8.8295    5.7469 H   0  0  0  0  0  0  0  0  0  0  0  0
    2.3246   -7.3520    5.8225 H   0  0  0  0  0  0  0  0  0  0  0  0
    4.0792   -7.3440    5.6060 H   0  0  0  0  0  0  0  0  0  0  0  0
    3.8014   -9.1253    2.1879 H   0  0  0  0  0  0  0  0  0  0  0  0
    4.8243   -9.0198    3.5852 H   0  0  0  0  0  0  0  0  0  0  0  0
    3.7499  -11.2275    3.1454 H   0  0  0  0  0  0  0  0  0  0  0  0
    3.2744  -10.6565    4.7002 H   0  0  0  0  0  0  0  0  0  0  0  0
    1.6971  -10.5849    2.1055 H   0  0  0  0  0  0  0  0  0  0  0  0
    1.7078  -12.4982    3.3697 H   0  0  0  0  0  0  0  0  0  0  0  0
   -1.1838   -8.6026    3.1980 H   0  0  0  0  0  0  0  0  0  0  0  0
   -1.0702  -10.3467    3.3143 H   0  0  0  0  0  0  0  0  0  0  0  0
   -0.4675   -9.6067    1.9161 H   0  0  0  0  0  0  0  0  0  0  0  0
    0.2041   -8.5465    5.6337 H   0  0  0  0  0  0  0  0  0  0  0  0
    1.4378   -9.7990    5.7780 H   0  0  0  0  0  0  0  0  0  0  0  0
   -0.1621  -10.2506    5.4338 H   0  0  0  0  0  0  0  0  0  0  0  0
    0.8825   -7.2409    3.8116 H   0  0  0  0  0  0  0  0  0  0  0  0
    1.8100   -8.4944    1.2107 H   0  0  0  0  0  0  0  0  0  0  0  0
    0.3254   -7.6596    1.4812 H   0  0  0  0  0  0  0  0  0  0  0  0
    1.8244   -6.2718    0.2587 H   0  0  0  0  0  0  0  0  0  0  0  0
    1.3224   -5.5547    1.7643 H   0  0  0  0  0  0  0  0  0  0  0  0
    3.7947   -7.9417    0.5018 H   0  0  0  0  0  0  0  0  0  0  0  0
    5.1775   -7.4252    1.4814 H   0  0  0  0  0  0  0  0  0  0  0  0
    4.7506   -6.6443    0.0021 H   0  0  0  0  0  0  0  0  0  0  0  0
    3.1919   -2.0034    0.9353 H   0  0  0  0  0  0  0  0  0  0  0  0
  1  2  2  0
  1 34  1  0
  1 35  1  0
  2  3  1  0
  2  4  1  0
  3 36  1  0
  3 37  1  0
  3 38  1  0
  4 33  1  0
  4  5  1  0
  4 39  1  1
  5  6  1  0
  5 40  1  0
  5 41  1  0
  6  7  1  0
  6 42  1  0
  6 43  1  0
  7 33  1  0
  7  8  1  6
  7 11  1  0
  8  9  2  0
  8 10  1  0
 11 12  1  0
 11 44  1  0
 11 45  1  0
 12 13  1  0
 12 46  1  0
 12 47  1  0
 13 31  1  0
 13 14  1  6
 13 15  1  0
 14 48  1  0
 14 49  1  0
 14 50  1  0
 15 16  1  0
 15 33  1  0
 15 51  1  6
 16 17  1  0
 16 52  1  0
 16 53  1  0
 17 18  1  0
 17 54  1  0
 17 55  1  0
 18 31  1  0
 18 19  1  0
 18 56  1  1
 19 28  1  0
 19 20  1  1
 19 21  1  0
 20 57  1  0
 20 58  1  0
 20 59  1  0
 21 22  1  0
 21 60  1  0
 21 61  1  0
 22 23  1  0
 22 62  1  0
 22 63  1  0
 23 24  1  0
 23 25  1  0
 23 64  1  6
 24 65  1  0
 25 26  1  0
 25 27  1  0
 25 28  1  0
 26 66  1  0
 26 67  1  0
 26 68  1  0
 27 69  1  0
 27 70  1  0
 27 71  1  0
 28 29  1  0
 28 72  1  1
 29 30  1  0
 29 73  1  0
 29 74  1  0
 30 31  1  0
 30 75  1  0
 30 76  1  0
 31 32  1  6
 32 77  1  0
 32 78  1  0
 32 79  1  0
 33 80  1  6
M  CHG  1  10  -1
M  END
>  <i_m_ct_stereo_status>  (95) 
1

>  <s_m_source_file>  (95) 
/var/tmp/pbs.5076255.sched01/tmpgskxq70o/44i51uky9l.sdf

>  <i_m_source_file_index>  (95) 
3

>  <i_lp_mmshare_version>  (95) 
48012

>  <i_f3d_flags>  (95) 
0

>  <s_epik_input>  (95) 
W0NIMl09QyhbQ0gzXSlbQ0BIXShbQ0gyXVtDSDJdMSlbQ0BASF0oW0NAQF0xMkMoPU8pW09IXSlbQ0BIXTNbQ0BAXShbQ0gzXSkoW0NIMl1bQ0gyXTIpW0NAQF00KFtDSDNdKVtDQEBIXShbQ0gyXVtDSDJdMylbQ0BAXTUoW0NIM10pW0NAQEhdKFtDSDJdW0NIMl00KUMoW0NIM10pKFtDSDNdKVtDQEhdKFtPSF0pW0NIMl1bQ0gyXTU=

>  <s_epik_cmdline>  (95) 
J2VwaWtfcHl0aG9uJywgJy1waHQnLCAnMi4wJywgJy1waCcsICc3LjAnLCAnLXRuJywgJzgnLCAnLW1hJywgJzIwMCcsICctaW1hZScsICc8aW5maWxlLm1hZT4nLCAnLW9tYWUnLCAnPG91dGZpbGUubWFlPic=

>  <r_epik_Ionization_Penalty>  (95) 
0.00776297

>  <r_epik_Ionization_Penalty_Charging>  (95) 
0.00775979

>  <r_epik_Ionization_Penalty_Neutral>  (95) 
3.18347e-06

>  <r_epik_State_Penalty>  (95) 
0.00581373

>  <r_epik_Charging_Adjusted_Penalty>  (95) 
0.0135735

>  <i_epik_Tot_Q>  (95) 
-1

>  <i_epik_Tot_abs_Q>  (95) 
1

>  <s_lp_Force_Field>  (95) 
OPLS3e

>  <r_lp_Energy>  (95) 
104.174

>  <b_lp_Chiralities_Consistent>  (95) 
1

>  <s_lp_Variant>  (95) 
31:0-1

>  <s_i_glide_gridfile>  (95) 
pfpi4k_grid

>  <i_i_glide_lignum>  (95) 
3

>  <i_i_glide_rotatable_bonds>  (95) 
3

>  <r_i_docking_score>  (95) 
-3.10707

>  <r_i_glide_ligand_efficiency>  (95) 
-0.0941535

>  <r_i_glide_ligand_efficiency_sa>  (95) 
-0.302001

>  <r_i_glide_ligand_efficiency_ln>  (95) 
-0.690995

>  <r_i_glide_gscore>  (95) 
-3.10707

>  <r_i_glide_lipo>  (95) 
-0.603861

>  <r_i_glide_hbond>  (95) 
-0.3572

>  <r_i_glide_metal>  (95) 
-0

>  <r_i_glide_rewards>  (95) 
-0.473608

>  <r_i_glide_evdw>  (95) 
-26.6385

>  <r_i_glide_ecoul>  (95) 
-2.91483

>  <r_i_glide_erotb>  (95) 
0.096752

>  <r_i_glide_esite>  (95) 
0

>  <r_i_glide_emodel>  (95) 
-31.524

>  <r_i_glide_energy>  (95) 
-29.5533

>  <r_i_glide_einternal>  (95) 
7.94468

>  <r_i_glide_intrahb_reward>  (95) 
-0

>  <i_i_glide_confnum>  (95) 
2

>  <i_i_glide_posenum>  (95) 
37

>  <r_i_glide_eff_state_penalty>  (95) 
0

>  <ligand_id>  (95) 
31

>  <original_smiles>  (95) 
C=C(C)C1CCC2(C(=O)O)CCC3(C)C(CCC4C5(C)CCC(O)C(C)(C)C5CCC43C)C12

>  <smiles>  (95) 
[H]OC1([H])C([H])([H])C([H])([H])C2(C([H])([H])[H])C([H])(C([H])([H])C([H])([H])C3(C([H])([H])[H])C2([H])C([H])([H])C([H])([H])C2([H])C4([H])C([H])(C(=C([H])[H])C([H])([H])[H])C([H])([H])C([H])([H])C4(C(=O)[O-])C([H])([H])C([H])([H])C23C([H])([H])[H])C1(C([H])([H])[H])C([H])([H])[H]

$$$$
32:0:0
     RDKit          3D

 46 50  0  0  1  0  0  0  0  0999 V2000
    6.0796   -0.5744    2.7721 C   0  0  0  0  0  0  0  0  0  0  0  0
    5.1669   -0.8754    1.6070 C   0  0  0  0  0  0  0  0  0  0  0  0
    4.2162   -1.8240    1.5393 C   0  0  0  0  0  0  0  0  0  0  0  0
    3.9060   -2.7219    2.7870 C   0  0  0  0  0  0  0  0  0  0  0  0
    3.3099   -4.0705    2.6341 N   0  0  0  0  0  0  0  0  0  0  0  0
    3.2673   -4.7971    3.8960 C   0  0  0  0  0  0  0  0  0  0  0  0
    3.9280   -4.8810    1.5967 C   0  0  1  0  0  0  0  0  0  0  0  0
    3.1191   -5.7112    0.5578 C   0  0  1  0  0  0  0  0  0  0  0  0
    1.6243   -5.7579    0.2364 C   0  0  0  0  0  0  0  0  0  0  0  0
    1.2536   -4.9059   -1.0410 C   0  0  0  0  0  0  0  0  0  0  0  0
    1.8689   -3.5001   -1.1604 C   0  0  1  0  0  0  0  0  0  0  0  0
    2.6619   -3.2311    0.1133 C   0  0  2  0  0  0  0  0  0  0  0  0
    3.3220   -1.8719    0.2761 C   0  0  2  0  0  0  0  0  0  0  0  0
    3.9745   -1.4281   -1.0848 C   0  0  1  0  0  0  0  0  0  0  0  0
    5.3149   -1.9905   -1.3321 C   0  0  0  0  0  0  0  0  0  0  0  0
    6.3715   -2.4129   -1.5197 N   0  0  0  0  0  0  0  0  0  0  0  0
    3.0792   -1.7667   -2.1933 N   0  0  0  0  0  0  0  0  0  0  0  0
    3.1651   -1.7896   -3.5619 C   0  0  0  0  0  0  0  0  0  0  0  0
    3.5122   -0.6701   -4.5266 C   0  0  0  0  0  0  0  0  0  0  0  0
    2.5614   -2.9752   -3.6286 C   0  0  0  0  0  0  0  0  0  0  0  0
    2.7547   -3.1686   -2.2649 N   0  0  0  0  0  0  0  0  0  0  0  0
    3.6734   -4.3533    0.2546 C   0  0  1  0  0  0  0  0  0  0  0  0
    7.0565   -0.9111    2.4647 H   0  0  0  0  0  0  0  0  0  0  0  0
    5.8053   -1.0510    3.7096 H   0  0  0  0  0  0  0  0  0  0  0  0
    6.1373    0.4970    2.9500 H   0  0  0  0  0  0  0  0  0  0  0  0
    5.3439   -0.2327    0.7590 H   0  0  0  0  0  0  0  0  0  0  0  0
    4.8425   -2.8793    3.3190 H   0  0  0  0  0  0  0  0  0  0  0  0
    3.2578   -2.1562    3.4557 H   0  0  0  0  0  0  0  0  0  0  0  0
    2.7444   -5.7465    3.7644 H   0  0  0  0  0  0  0  0  0  0  0  0
    2.7259   -4.2190    4.6458 H   0  0  0  0  0  0  0  0  0  0  0  0
    4.2686   -5.0105    4.2731 H   0  0  0  0  0  0  0  0  0  0  0  0
    4.9432   -5.2386    1.7466 H   0  0  0  0  0  0  0  0  0  0  0  0
    3.6763   -6.5423    0.1295 H   0  0  0  0  0  0  0  0  0  0  0  0
    1.3227   -6.7943    0.0968 H   0  0  0  0  0  0  0  0  0  0  0  0
    1.0861   -5.4428    1.1322 H   0  0  0  0  0  0  0  0  0  0  0  0
    1.3631   -5.4324   -1.9429 H   0  0  0  0  0  0  0  0  0  0  0  0
    0.1864   -4.7702   -1.1083 H   0  0  0  0  0  0  0  0  0  0  0  0
    0.9836   -2.9156   -1.3080 H   0  0  0  0  0  0  0  0  0  0  0  0
    1.9026   -3.2669    0.8936 H   0  0  0  0  0  0  0  0  0  0  0  0
    2.5343   -1.1600    0.5100 H   0  0  0  0  0  0  0  0  0  0  0  0
    4.1158   -0.3505   -1.0818 H   0  0  0  0  0  0  0  0  0  0  0  0
    3.3798   -1.0152   -5.5471 H   0  0  0  0  0  0  0  0  0  0  0  0
    4.5589   -0.3829   -4.4237 H   0  0  0  0  0  0  0  0  0  0  0  0
    2.8749    0.2054   -4.3790 H   0  0  0  0  0  0  0  0  0  0  0  0
    2.1521   -3.7644   -4.2534 H   0  0  0  0  0  0  0  0  0  0  0  0
    4.4949   -4.3491   -0.4582 H   0  0  0  0  0  0  0  0  0  0  0  0
  1  2  1  0
  1 23  1  0
  1 24  1  0
  1 25  1  0
  2  3  2  3
  2 26  1  0
  3 13  1  0
  3  4  1  0
  4  5  1  0
  4 27  1  0
  4 28  1  0
  5  6  1  0
  5  7  1  0
  6 29  1  0
  6 30  1  0
  6 31  1  0
  7 22  1  0
  7  8  1  0
  7 32  1  1
  8 22  1  0
  8  9  1  0
  8 33  1  6
  9 10  1  0
  9 34  1  0
  9 35  1  0
 10 11  1  0
 10 36  1  0
 10 37  1  0
 11 21  1  0
 11 12  1  0
 11 38  1  1
 12 13  1  0
 12 22  1  0
 12 39  1  1
 13 14  1  0
 13 40  1  1
 14 15  1  0
 14 17  1  0
 14 41  1  1
 15 16  3  0
 17 21  1  0
 17 18  1  0
 18 19  1  0
 18 20  2  0
 19 42  1  0
 19 43  1  0
 19 44  1  0
 20 21  1  0
 20 45  1  0
 22 46  1  6
M  END
>  <i_m_ct_stereo_status>  (96) 
1

>  <s_m_source_file>  (96) 
/var/tmp/pbs.5076255.sched01/tmpgskxq70o/44i51uky9l.sdf

>  <i_m_source_file_index>  (96) 
4

>  <i_lp_mmshare_version>  (96) 
48012

>  <i_f3d_flags>  (96) 
0

>  <s_epik_input>  (96) 
W0NIM11OMVtDSDJdL0MoPVtDSF1cW0NIM10pW0NASF0yW0NAQEhdKEMjTiluKGMoW0NIM10pW2NIXTMpbjNbQ0BASF0oW0NIMl1bQ0gyXTQpW0NASF0yW0NAQEhdNVtDQEhdNFtDQEhdMTU=

>  <s_epik_cmdline>  (96) 
J2VwaWtfcHl0aG9uJywgJy1waHQnLCAnMi4wJywgJy1waCcsICc3LjAnLCAnLXRuJywgJzgnLCAnLW1hJywgJzIwMCcsICctaW1hZScsICc8aW5maWxlLm1hZT4nLCAnLW9tYWUnLCAnPG91dGZpbGUubWFlPic=

>  <r_epik_Ionization_Penalty>  (96) 
0.141921

>  <r_epik_Ionization_Penalty_Charging>  (96) 
0

>  <r_epik_Ionization_Penalty_Neutral>  (96) 
0.141921

>  <r_epik_State_Penalty>  (96) 
0.131224

>  <r_epik_Charging_Adjusted_Penalty>  (96) 
0.131224

>  <i_epik_Tot_Q>  (96) 
0

>  <i_epik_Tot_abs_Q>  (96) 
0

>  <s_lp_Force_Field>  (96) 
OPLS3e

>  <r_lp_Energy>  (96) 
54.1274

>  <b_lp_Chiralities_Consistent>  (96) 
1

>  <s_lp_Variant>  (96) 
32:0-1

>  <s_i_glide_gridfile>  (96) 
pfpi4k_grid

>  <i_i_glide_lignum>  (96) 
4

>  <i_i_glide_rotatable_bonds>  (96) 
1

>  <r_i_docking_score>  (96) 
-3.09275

>  <r_i_glide_ligand_efficiency>  (96) 
-0.140579

>  <r_i_glide_ligand_efficiency_sa>  (96) 
-0.393909

>  <r_i_glide_ligand_efficiency_ln>  (96) 
-0.755981

>  <r_i_glide_gscore>  (96) 
-3.09275

>  <r_i_glide_lipo>  (96) 
-0.856408

>  <r_i_glide_hbond>  (96) 
-0.0620544

>  <r_i_glide_metal>  (96) 
-0

>  <r_i_glide_rewards>  (96) 
-1.40774

>  <r_i_glide_evdw>  (96) 
-12.2986

>  <r_i_glide_ecoul>  (96) 
-0.256553

>  <r_i_glide_erotb>  (96) 
0

>  <r_i_glide_esite>  (96) 
-0.113128

>  <r_i_glide_emodel>  (96) 
-11.883

>  <r_i_glide_energy>  (96) 
-12.5552

>  <r_i_glide_einternal>  (96) 
0.122059

>  <r_i_glide_intrahb_reward>  (96) 
-0

>  <i_i_glide_confnum>  (96) 
2

>  <i_i_glide_posenum>  (96) 
5

>  <r_i_glide_eff_state_penalty>  (96) 
0

>  <ligand_id>  (96) 
32

>  <original_smiles>  (96) 
CC=C1CN(C)C2C3CCC4C(C1C(C#N)n1c(C)cn14)C32

>  <smiles>  (96) 
[H]C(=C1C([H])([H])N(C([H])([H])[H])C2([H])C3([H])C([H])([H])C([H])([H])C4([H])n5c([H])c(C([H])([H])[H])n5C([H])(C#N)C1([H])C4([H])C23[H])C([H])([H])[H]

$$$$
32:0:1
     RDKit          3D

 46 50  0  0  1  0  0  0  0  0999 V2000
    2.0270   -3.2611   -2.3166 C   0  0  0  0  0  0  0  0  0  0  0  0
    3.2778   -3.7255   -1.6181 C   0  0  0  0  0  0  0  0  0  0  0  0
    3.3608   -4.6572   -0.6430 C   0  0  0  0  0  0  0  0  0  0  0  0
    2.0724   -5.4220   -0.1700 C   0  0  0  0  0  0  0  0  0  0  0  0
    1.9993   -6.0759    1.1651 N   0  0  0  0  0  0  0  0  0  0  0  0
    0.6753   -6.6302    1.4684 C   0  0  0  0  0  0  0  0  0  0  0  0
    2.5136   -5.2349    2.2305 C   0  0  1  0  0  0  0  0  0  0  0  0
    3.4768   -5.7522    3.3374 C   0  0  1  0  0  0  0  0  0  0  0  0
    4.2330   -7.0562    3.5167 C   0  0  0  0  0  0  0  0  0  0  0  0
    5.7606   -6.9445    3.1096 C   0  0  0  0  0  0  0  0  0  0  0  0
    6.0474   -6.2992    1.7200 C   0  0  1  0  0  0  0  0  0  0  0  0
    4.7147   -5.8710    1.1155 C   0  0  2  0  0  0  0  0  0  0  0  0
    4.7524   -5.1866   -0.2291 C   0  0  2  0  0  0  0  0  0  0  0  0
    5.9133   -4.1289   -0.2829 C   0  0  1  0  0  0  0  0  0  0  0  0
    5.5715   -2.8128    0.3106 C   0  0  0  0  0  0  0  0  0  0  0  0
    5.2949   -1.7836    0.7481 N   0  0  0  0  0  0  0  0  0  0  0  0
    7.0863   -4.6848    0.3805 N   0  0  0  0  0  0  0  0  0  0  0  0
    8.2652   -4.1431    0.8209 C   0  0  0  0  0  0  0  0  0  0  0  0
    9.3461   -3.4331    0.0527 C   0  0  0  0  0  0  0  0  0  0  0  0
    8.2387   -4.8978    1.9275 C   0  0  0  0  0  0  0  0  0  0  0  0
    6.8804   -5.1031    1.7437 N   0  0  0  0  0  0  0  0  0  0  0  0
    3.9653   -5.0486    2.1277 C   0  0  1  0  0  0  0  0  0  0  0  0
    1.8174   -2.2697   -1.9539 H   0  0  0  0  0  0  0  0  0  0  0  0
    1.1555   -3.8713   -2.1458 H   0  0  0  0  0  0  0  0  0  0  0  0
    2.1821   -3.2045   -3.3886 H   0  0  0  0  0  0  0  0  0  0  0  0
    4.1714   -3.2804   -1.9928 H   0  0  0  0  0  0  0  0  0  0  0  0
    1.2540   -4.7211   -0.2675 H   0  0  0  0  0  0  0  0  0  0  0  0
    1.8326   -6.2444   -0.8280 H   0  0  0  0  0  0  0  0  0  0  0  0
    0.7145   -7.1636    2.4246 H   0  0  0  0  0  0  0  0  0  0  0  0
    0.3592   -7.3309    0.6888 H   0  0  0  0  0  0  0  0  0  0  0  0
   -0.0823   -5.8518    1.5603 H   0  0  0  0  0  0  0  0  0  0  0  0
    1.9729   -4.3399    2.4965 H   0  0  0  0  0  0  0  0  0  0  0  0
    3.4519   -5.1410    4.2336 H   0  0  0  0  0  0  0  0  0  0  0  0
    4.1543   -7.3559    4.5599 H   0  0  0  0  0  0  0  0  0  0  0  0
    3.7401   -7.8389    2.9317 H   0  0  0  0  0  0  0  0  0  0  0  0
    6.3411   -6.4476    3.8994 H   0  0  0  0  0  0  0  0  0  0  0  0
    6.1461   -7.9700    3.0625 H   0  0  0  0  0  0  0  0  0  0  0  0
    6.5245   -7.0323    1.0699 H   0  0  0  0  0  0  0  0  0  0  0  0
    4.2438   -6.8500    0.9285 H   0  0  0  0  0  0  0  0  0  0  0  0
    4.9783   -5.9506   -0.9654 H   0  0  0  0  0  0  0  0  0  0  0  0
    6.1858   -3.9334   -1.3157 H   0  0  0  0  0  0  0  0  0  0  0  0
   10.1995   -3.2625    0.7239 H   0  0  0  0  0  0  0  0  0  0  0  0
    9.0144   -2.4556   -0.3038 H   0  0  0  0  0  0  0  0  0  0  0  0
    9.6562   -4.0179   -0.8168 H   0  0  0  0  0  0  0  0  0  0  0  0
    8.7173   -5.2129    2.8518 H   0  0  0  0  0  0  0  0  0  0  0  0
    4.3438   -4.0444    2.2948 H   0  0  0  0  0  0  0  0  0  0  0  0
  1  2  1  0
  1 23  1  0
  1 24  1  0
  1 25  1  0
  2  3  2  3
  2 26  1  0
  3 13  1  0
  3  4  1  0
  4  5  1  0
  4 27  1  0
  4 28  1  0
  5  6  1  0
  5  7  1  0
  6 29  1  0
  6 30  1  0
  6 31  1  0
  7 22  1  0
  7  8  1  0
  7 32  1  1
  8 22  1  0
  8  9  1  0
  8 33  1  1
  9 10  1  0
  9 34  1  0
  9 35  1  0
 10 11  1  0
 10 36  1  0
 10 37  1  0
 11 21  1  0
 11 12  1  0
 11 38  1  6
 12 13  1  0
 12 22  1  0
 12 39  1  6
 13 14  1  0
 13 40  1  6
 14 15  1  0
 14 17  1  0
 14 41  1  6
 15 16  3  0
 17 21  1  0
 17 18  1  0
 18 19  1  0
 18 20  2  0
 19 42  1  0
 19 43  1  0
 19 44  1  0
 20 21  1  0
 20 45  1  0
 22 46  1  1
M  END
>  <i_m_ct_stereo_status>  (97) 
1

>  <s_m_source_file>  (97) 
/var/tmp/pbs.5076255.sched01/tmpgskxq70o/44i51uky9l.sdf

>  <i_m_source_file_index>  (97) 
4

>  <i_lp_mmshare_version>  (97) 
48012

>  <i_f3d_flags>  (97) 
0

>  <s_epik_input>  (97) 
W0NIM11OMVtDSDJdL0MoPVtDSF1cW0NIM10pW0NASF0yW0NAQEhdKEMjTiluKGMoW0NIM10pW2NIXTMpbjNbQ0BASF0oW0NIMl1bQ0gyXTQpW0NASF0yW0NAQEhdNVtDQEhdNFtDQEhdMTU=

>  <s_epik_cmdline>  (97) 
J2VwaWtfcHl0aG9uJywgJy1waHQnLCAnMi4wJywgJy1waCcsICc3LjAnLCAnLXRuJywgJzgnLCAnLW1hJywgJzIwMCcsICctaW1hZScsICc8aW5maWxlLm1hZT4nLCAnLW9tYWUnLCAnPG91dGZpbGUubWFlPic=

>  <r_epik_Ionization_Penalty>  (97) 
0.141921

>  <r_epik_Ionization_Penalty_Charging>  (97) 
0

>  <r_epik_Ionization_Penalty_Neutral>  (97) 
0.141921

>  <r_epik_State_Penalty>  (97) 
0.131224

>  <r_epik_Charging_Adjusted_Penalty>  (97) 
0.131224

>  <i_epik_Tot_Q>  (97) 
0

>  <i_epik_Tot_abs_Q>  (97) 
0

>  <s_lp_Force_Field>  (97) 
OPLS3e

>  <r_lp_Energy>  (97) 
54.1274

>  <b_lp_Chiralities_Consistent>  (97) 
1

>  <s_lp_Variant>  (97) 
32:0-1

>  <s_i_glide_gridfile>  (97) 
pfpi4k_grid

>  <i_i_glide_lignum>  (97) 
4

>  <i_i_glide_rotatable_bonds>  (97) 
1

>  <r_i_docking_score>  (97) 
-2.84682

>  <r_i_glide_ligand_efficiency>  (97) 
-0.129401

>  <r_i_glide_ligand_efficiency_sa>  (97) 
-0.362586

>  <r_i_glide_ligand_efficiency_ln>  (97) 
-0.695866

>  <r_i_glide_gscore>  (97) 
-2.84682

>  <r_i_glide_lipo>  (97) 
-0.568556

>  <r_i_glide_hbond>  (97) 
0

>  <r_i_glide_metal>  (97) 
-0

>  <r_i_glide_rewards>  (97) 
-1.71976

>  <r_i_glide_evdw>  (97) 
-13.0904

>  <r_i_glide_ecoul>  (97) 
0.640098

>  <r_i_glide_erotb>  (97) 
0

>  <r_i_glide_esite>  (97) 
0

>  <r_i_glide_emodel>  (97) 
-12.0729

>  <r_i_glide_energy>  (97) 
-12.4503

>  <r_i_glide_einternal>  (97) 
0.127055

>  <r_i_glide_intrahb_reward>  (97) 
-0

>  <i_i_glide_confnum>  (97) 
1

>  <i_i_glide_posenum>  (97) 
9

>  <r_i_glide_eff_state_penalty>  (97) 
0

>  <ligand_id>  (97) 
32

>  <original_smiles>  (97) 
CC=C1CN(C)C2C3CCC4C(C1C(C#N)n1c(C)cn14)C32

>  <smiles>  (97) 
[H]C(=C1C([H])([H])N(C([H])([H])[H])C2([H])C3([H])C([H])([H])C([H])([H])C4([H])n5c([H])c(C([H])([H])[H])n5C([H])(C#N)C1([H])C4([H])C23[H])C([H])([H])[H]

$$$$
32:1:0
     RDKit          3D

 46 50  0  0  1  0  0  0  0  0999 V2000
    1.6074   -5.8547    0.7781 C   0  0  0  0  0  0  0  0  0  0  0  0
    2.6830   -6.8208    1.2260 C   0  0  0  0  0  0  0  0  0  0  0  0
    4.0283   -6.6935    1.1359 C   0  0  0  0  0  0  0  0  0  0  0  0
    4.8246   -8.0014    1.4493 C   0  0  0  0  0  0  0  0  0  0  0  0
    6.2460   -7.9855    1.8560 N   0  0  0  0  0  0  0  0  0  0  0  0
    6.7088   -9.3015    2.2664 C   0  0  0  0  0  0  0  0  0  0  0  0
    6.5766   -6.9888    2.8611 C   0  0  1  0  0  0  0  0  0  0  0  0
    7.8115   -6.0551    2.7756 C   0  0  1  0  0  0  0  0  0  0  0  0
    8.8078   -5.7849    1.6523 C   0  0  0  0  0  0  0  0  0  0  0  0
    8.5164   -4.4518    0.8613 C   0  0  0  0  0  0  0  0  0  0  0  0
    7.0339   -4.2255    0.4335 C   0  0  1  0  0  0  0  0  0  0  0  0
    6.2150   -5.4247    0.8794 C   0  0  2  0  0  0  0  0  0  0  0  0
    4.7268   -5.4293    0.5377 C   0  0  2  0  0  0  0  0  0  0  0  0
    4.1247   -4.0153    0.8797 C   0  0  1  0  0  0  0  0  0  0  0  0
    3.7603   -3.8377    2.3000 C   0  0  0  0  0  0  0  0  0  0  0  0
    3.4649   -3.7110    3.4082 N   0  0  0  0  0  0  0  0  0  0  0  0
    5.0491   -2.9627    0.4378 N   0  0  0  0  0  0  0  0  0  0  0  0
    5.1510   -1.6112    0.6703 C   0  0  0  0  0  0  0  0  0  0  0  0
    4.1700   -0.5049    0.3393 C   0  0  0  0  0  0  0  0  0  0  0  0
    6.4619   -1.6970    0.8996 C   0  0  0  0  0  0  0  0  0  0  0  0
    6.3602   -3.0719    1.0162 N   0  0  0  0  0  0  0  0  0  0  0  0
    6.4461   -5.6226    2.3692 C   0  0  1  0  0  0  0  0  0  0  0  0
    0.6828   -6.4088    0.6086 H   0  0  0  0  0  0  0  0  0  0  0  0
    1.8655   -5.3832   -0.1677 H   0  0  0  0  0  0  0  0  0  0  0  0
    1.4260   -5.1050    1.5431 H   0  0  0  0  0  0  0  0  0  0  0  0
    2.2839   -7.7478    1.6181 H   0  0  0  0  0  0  0  0  0  0  0  0
    4.2821   -8.5314    2.2347 H   0  0  0  0  0  0  0  0  0  0  0  0
    4.7696   -8.6364    0.5633 H   0  0  0  0  0  0  0  0  0  0  0  0
    7.7777   -9.2647    2.4852 H   0  0  0  0  0  0  0  0  0  0  0  0
    6.5488  -10.0258    1.4657 H   0  0  0  0  0  0  0  0  0  0  0  0
    6.1898   -9.6504    3.1606 H   0  0  0  0  0  0  0  0  0  0  0  0
    6.2081   -7.1335    3.8714 H   0  0  0  0  0  0  0  0  0  0  0  0
    8.1533   -5.6894    3.7405 H   0  0  0  0  0  0  0  0  0  0  0  0
    9.8068   -5.7477    2.0847 H   0  0  0  0  0  0  0  0  0  0  0  0
    8.7998   -6.6439    0.9791 H   0  0  0  0  0  0  0  0  0  0  0  0
    8.9029   -3.5802    1.3934 H   0  0  0  0  0  0  0  0  0  0  0  0
    9.0926   -4.5067   -0.0652 H   0  0  0  0  0  0  0  0  0  0  0  0
    6.9758   -4.1344   -0.6483 H   0  0  0  0  0  0  0  0  0  0  0  0
    6.6532   -6.2306    0.2884 H   0  0  0  0  0  0  0  0  0  0  0  0
    4.6627   -5.5483   -0.5426 H   0  0  0  0  0  0  0  0  0  0  0  0
    3.2114   -3.8440    0.3216 H   0  0  0  0  0  0  0  0  0  0  0  0
    4.6436    0.4692    0.4821 H   0  0  0  0  0  0  0  0  0  0  0  0
    3.2986   -0.5502    0.9948 H   0  0  0  0  0  0  0  0  0  0  0  0
    3.8340   -0.5790   -0.6951 H   0  0  0  0  0  0  0  0  0  0  0  0
    7.3956   -1.1700    1.0931 H   0  0  0  0  0  0  0  0  0  0  0  0
    5.9950   -4.8889    3.0300 H   0  0  0  0  0  0  0  0  0  0  0  0
  1  2  1  0
  1 23  1  0
  1 24  1  0
  1 25  1  0
  2  3  2  3
  2 26  1  0
  3 13  1  0
  3  4  1  0
  4  5  1  0
  4 27  1  0
  4 28  1  0
  5  6  1  0
  5  7  1  0
  6 29  1  0
  6 30  1  0
  6 31  1  0
  7 22  1  0
  7  8  1  0
  7 32  1  1
  8 22  1  0
  8  9  1  0
  8 33  1  1
  9 10  1  0
  9 34  1  0
  9 35  1  0
 10 11  1  0
 10 36  1  0
 10 37  1  0
 11 21  1  0
 11 12  1  0
 11 38  1  6
 12 13  1  0
 12 22  1  0
 12 39  1  6
 13 14  1  0
 13 40  1  6
 14 15  1  0
 14 17  1  0
 14 41  1  6
 15 16  3  0
 17 21  1  0
 17 18  1  0
 18 19  1  0
 18 20  2  0
 19 42  1  0
 19 43  1  0
 19 44  1  0
 20 21  1  0
 20 45  1  0
 22 46  1  1
M  END
>  <i_m_ct_stereo_status>  (98) 
1

>  <s_m_source_file>  (98) 
/var/tmp/pbs.5076255.sched01/tmpgskxq70o/44i51uky9l.sdf

>  <i_m_source_file_index>  (98) 
5

>  <i_lp_mmshare_version>  (98) 
48012

>  <i_f3d_flags>  (98) 
0

>  <s_epik_input>  (98) 
W0NIM11OMVtDSDJdL0MoPVtDSF1cW0NIM10pW0NASF0yW0NAQEhdKEMjTiluKGMoW0NIM10pW2NIXTMpbjNbQ0BASF0oW0NIMl1bQ0gyXTQpW0NASF0yW0NAQEhdNVtDQEhdNFtDQEhdMTU=

>  <s_epik_cmdline>  (98) 
J2VwaWtfcHl0aG9uJywgJy1waHQnLCAnMi4wJywgJy1waCcsICc3LjAnLCAnLXRuJywgJzgnLCAnLW1hJywgJzIwMCcsICctaW1hZScsICc8aW5maWxlLm1hZT4nLCAnLW9tYWUnLCAnPG91dGZpbGUubWFlPic=

>  <r_epik_Ionization_Penalty>  (98) 
0.141921

>  <r_epik_Ionization_Penalty_Charging>  (98) 
0

>  <r_epik_Ionization_Penalty_Neutral>  (98) 
0.141921

>  <r_epik_State_Penalty>  (98) 
0.131224

>  <r_epik_Charging_Adjusted_Penalty>  (98) 
0.131224

>  <i_epik_Tot_Q>  (98) 
0

>  <i_epik_Tot_abs_Q>  (98) 
0

>  <s_lp_Force_Field>  (98) 
OPLS3e

>  <r_lp_Energy>  (98) 
57.3322

>  <b_lp_Chiralities_Consistent>  (98) 
1

>  <s_lp_Variant>  (98) 
32:0-2

>  <s_i_glide_gridfile>  (98) 
pfpi4k_grid

>  <i_i_glide_lignum>  (98) 
5

>  <i_i_glide_rotatable_bonds>  (98) 
1

>  <r_i_docking_score>  (98) 
-3.48965

>  <r_i_glide_ligand_efficiency>  (98) 
-0.158621

>  <r_i_glide_ligand_efficiency_sa>  (98) 
-0.444461

>  <r_i_glide_ligand_efficiency_ln>  (98) 
-0.852999

>  <r_i_glide_gscore>  (98) 
-3.48965

>  <r_i_glide_lipo>  (98) 
-0.83448

>  <r_i_glide_hbond>  (98) 
0

>  <r_i_glide_metal>  (98) 
-0

>  <r_i_glide_rewards>  (98) 
-1.54186

>  <r_i_glide_evdw>  (98) 
-19.9289

>  <r_i_glide_ecoul>  (98) 
-0.779122

>  <r_i_glide_erotb>  (98) 
0

>  <r_i_glide_esite>  (98) 
0

>  <r_i_glide_emodel>  (98) 
-24.5231

>  <r_i_glide_energy>  (98) 
-20.708

>  <r_i_glide_einternal>  (98) 
0.0031502

>  <r_i_glide_intrahb_reward>  (98) 
-0

>  <i_i_glide_confnum>  (98) 
2

>  <i_i_glide_posenum>  (98) 
38

>  <r_i_glide_eff_state_penalty>  (98) 
0

>  <ligand_id>  (98) 
32

>  <original_smiles>  (98) 
CC=C1CN(C)C2C3CCC4C(C1C(C#N)n1c(C)cn14)C32

>  <smiles>  (98) 
[H]C(=C1C([H])([H])N(C([H])([H])[H])C2([H])C3([H])C([H])([H])C([H])([H])C4([H])n5c([H])c(C([H])([H])[H])n5C([H])(C#N)C1([H])C4([H])C23[H])C([H])([H])[H]

$$$$
32:1:1
     RDKit          3D

 46 50  0  0  1  0  0  0  0  0999 V2000
    5.5806   -0.3699    1.7932 C   0  0  0  0  0  0  0  0  0  0  0  0
    5.1456   -1.6090    2.5331 C   0  0  0  0  0  0  0  0  0  0  0  0
    4.2030   -2.5078    2.1862 C   0  0  0  0  0  0  0  0  0  0  0  0
    3.8163   -3.5205    3.3113 C   0  0  0  0  0  0  0  0  0  0  0  0
    3.1781   -4.8198    3.0316 N   0  0  0  0  0  0  0  0  0  0  0  0
    3.0938   -5.6555    4.2126 C   0  0  0  0  0  0  0  0  0  0  0  0
    3.7865   -5.5497    1.9426 C   0  0  1  0  0  0  0  0  0  0  0  0
    2.9747   -6.2426    0.8394 C   0  0  1  0  0  0  0  0  0  0  0  0
    1.4818   -6.1760    0.4848 C   0  0  0  0  0  0  0  0  0  0  0  0
    1.2001   -5.2104   -0.7218 C   0  0  0  0  0  0  0  0  0  0  0  0
    1.8945   -3.8075   -0.7203 C   0  0  1  0  0  0  0  0  0  0  0  0
    2.6642   -3.7060    0.5808 C   0  0  2  0  0  0  0  0  0  0  0  0
    3.3982   -2.4009    0.8576 C   0  0  2  0  0  0  0  0  0  0  0  0
    4.1385   -1.9443   -0.4525 C   0  0  1  0  0  0  0  0  0  0  0  0
    5.4602   -2.5746   -0.6601 C   0  0  0  0  0  0  0  0  0  0  0  0
    6.4967   -3.0654   -0.8097 N   0  0  0  0  0  0  0  0  0  0  0  0
    3.2805   -2.1234   -1.6188 N   0  0  0  0  0  0  0  0  0  0  0  0
    3.4686   -2.1320   -2.9773 C   0  0  0  0  0  0  0  0  0  0  0  0
    3.9344   -1.0093   -3.8817 C   0  0  0  0  0  0  0  0  0  0  0  0
    2.7532   -3.2410   -3.1176 C   0  0  0  0  0  0  0  0  0  0  0  0
    2.8420   -3.4574   -1.7669 N   0  0  0  0  0  0  0  0  0  0  0  0
    3.6069   -4.8989    0.6556 C   0  0  1  0  0  0  0  0  0  0  0  0
    6.0140    0.2888    2.5399 H   0  0  0  0  0  0  0  0  0  0  0  0
    4.7404    0.1601    1.3442 H   0  0  0  0  0  0  0  0  0  0  0  0
    6.3369   -0.5928    1.0408 H   0  0  0  0  0  0  0  0  0  0  0  0
    5.6378   -1.7259    3.4883 H   0  0  0  0  0  0  0  0  0  0  0  0
    4.7265   -3.7348    3.8745 H   0  0  0  0  0  0  0  0  0  0  0  0
    3.1491   -3.0004    4.0005 H   0  0  0  0  0  0  0  0  0  0  0  0
    2.5534   -6.5764    3.9933 H   0  0  0  0  0  0  0  0  0  0  0  0
    2.5567   -5.1338    5.0037 H   0  0  0  0  0  0  0  0  0  0  0  0
    4.0833   -5.9248    4.5861 H   0  0  0  0  0  0  0  0  0  0  0  0
    4.7803   -5.9833    2.0620 H   0  0  0  0  0  0  0  0  0  0  0  0
    3.5165   -7.0393    0.3558 H   0  0  0  0  0  0  0  0  0  0  0  0
    1.0865   -7.1690    0.2583 H   0  0  0  0  0  0  0  0  0  0  0  0
    0.9540   -5.8757    1.3879 H   0  0  0  0  0  0  0  0  0  0  0  0
    1.1960   -5.6564   -1.6906 H   0  0  0  0  0  0  0  0  0  0  0  0
    0.1386   -5.0656   -0.7238 H   0  0  0  0  0  0  0  0  0  0  0  0
    1.0947   -3.0933   -0.7776 H   0  0  0  0  0  0  0  0  0  0  0  0
    1.8903   -3.7683    1.3278 H   0  0  0  0  0  0  0  0  0  0  0  0
    2.6102   -1.6748    1.0510 H   0  0  0  0  0  0  0  0  0  0  0  0
    4.3398   -0.8721   -0.4139 H   0  0  0  0  0  0  0  0  0  0  0  0
    3.7782   -1.2951   -4.9264 H   0  0  0  0  0  0  0  0  0  0  0  0
    4.9979   -0.8376   -3.7125 H   0  0  0  0  0  0  0  0  0  0  0  0
    3.3722   -0.0908   -3.6956 H   0  0  0  0  0  0  0  0  0  0  0  0
    2.2718   -3.9755   -3.7791 H   0  0  0  0  0  0  0  0  0  0  0  0
    4.4318   -4.9019   -0.0392 H   0  0  0  0  0  0  0  0  0  0  0  0
  1  2  1  0
  1 23  1  0
  1 24  1  0
  1 25  1  0
  2  3  2  3
  2 26  1  0
  3 13  1  0
  3  4  1  0
  4  5  1  0
  4 27  1  0
  4 28  1  0
  5  6  1  0
  5  7  1  0
  6 29  1  0
  6 30  1  0
  6 31  1  0
  7 22  1  0
  7  8  1  0
  7 32  1  1
  8 22  1  0
  8  9  1  0
  8 33  1  6
  9 10  1  0
  9 34  1  0
  9 35  1  0
 10 11  1  0
 10 36  1  0
 10 37  1  0
 11 21  1  0
 11 12  1  0
 11 38  1  1
 12 13  1  0
 12 22  1  0
 12 39  1  1
 13 14  1  0
 13 40  1  1
 14 15  1  0
 14 17  1  0
 14 41  1  1
 15 16  3  0
 17 21  1  0
 17 18  1  0
 18 19  1  0
 18 20  2  0
 19 42  1  0
 19 43  1  0
 19 44  1  0
 20 21  1  0
 20 45  1  0
 22 46  1  6
M  END
>  <i_m_ct_stereo_status>  (99) 
1

>  <s_m_source_file>  (99) 
/var/tmp/pbs.5076255.sched01/tmpgskxq70o/44i51uky9l.sdf

>  <i_m_source_file_index>  (99) 
5

>  <i_lp_mmshare_version>  (99) 
48012

>  <i_f3d_flags>  (99) 
0

>  <s_epik_input>  (99) 
W0NIM11OMVtDSDJdL0MoPVtDSF1cW0NIM10pW0NASF0yW0NAQEhdKEMjTiluKGMoW0NIM10pW2NIXTMpbjNbQ0BASF0oW0NIMl1bQ0gyXTQpW0NASF0yW0NAQEhdNVtDQEhdNFtDQEhdMTU=

>  <s_epik_cmdline>  (99) 
J2VwaWtfcHl0aG9uJywgJy1waHQnLCAnMi4wJywgJy1waCcsICc3LjAnLCAnLXRuJywgJzgnLCAnLW1hJywgJzIwMCcsICctaW1hZScsICc8aW5maWxlLm1hZT4nLCAnLW9tYWUnLCAnPG91dGZpbGUubWFlPic=

>  <r_epik_Ionization_Penalty>  (99) 
0.141921

>  <r_epik_Ionization_Penalty_Charging>  (99) 
0

>  <r_epik_Ionization_Penalty_Neutral>  (99) 
0.141921

>  <r_epik_State_Penalty>  (99) 
0.131224

>  <r_epik_Charging_Adjusted_Penalty>  (99) 
0.131224

>  <i_epik_Tot_Q>  (99) 
0

>  <i_epik_Tot_abs_Q>  (99) 
0

>  <s_lp_Force_Field>  (99) 
OPLS3e

>  <r_lp_Energy>  (99) 
57.3322

>  <b_lp_Chiralities_Consistent>  (99) 
1

>  <s_lp_Variant>  (99) 
32:0-2

>  <s_i_glide_gridfile>  (99) 
pfpi4k_grid

>  <i_i_glide_lignum>  (99) 
5

>  <i_i_glide_rotatable_bonds>  (99) 
1

>  <r_i_docking_score>  (99) 
-2.63698

>  <r_i_glide_ligand_efficiency>  (99) 
-0.119863

>  <r_i_glide_ligand_efficiency_sa>  (99) 
-0.33586

>  <r_i_glide_ligand_efficiency_ln>  (99) 
-0.644573

>  <r_i_glide_gscore>  (99) 
-2.63698

>  <r_i_glide_lipo>  (99) 
-0.500549

>  <r_i_glide_hbond>  (99) 
0

>  <r_i_glide_metal>  (99) 
-0

>  <r_i_glide_rewards>  (99) 
-1.52257

>  <r_i_glide_evdw>  (99) 
-14.8829

>  <r_i_glide_ecoul>  (99) 
1.41741

>  <r_i_glide_erotb>  (99) 
0

>  <r_i_glide_esite>  (99) 
-0.0823285

>  <r_i_glide_emodel>  (99) 
-14.9702

>  <r_i_glide_energy>  (99) 
-13.4655

>  <r_i_glide_einternal>  (99) 
-0.0127369

>  <r_i_glide_intrahb_reward>  (99) 
-0

>  <i_i_glide_confnum>  (99) 
1

>  <i_i_glide_posenum>  (99) 
2

>  <r_i_glide_eff_state_penalty>  (99) 
0

>  <ligand_id>  (99) 
32

>  <original_smiles>  (99) 
CC=C1CN(C)C2C3CCC4C(C1C(C#N)n1c(C)cn14)C32

>  <smiles>  (99) 
[H]C(=C1C([H])([H])N(C([H])([H])[H])C2([H])C3([H])C([H])([H])C([H])([H])C4([H])n5c([H])c(C([H])([H])[H])n5C([H])(C#N)C1([H])C4([H])C23[H])C([H])([H])[H]

$$$$
32:2:0
     RDKit          3D

 47 51  0  0  1  0  0  0  0  0999 V2000
    6.2782   -0.8742    2.2189 C   0  0  0  0  0  0  0  0  0  0  0  0
    5.4066   -0.9600    0.9978 C   0  0  0  0  0  0  0  0  0  0  0  0
    4.2372   -1.5916    0.8688 C   0  0  0  0  0  0  0  0  0  0  0  0
    3.5285   -2.2851    2.0567 C   0  0  0  0  0  0  0  0  0  0  0  0
    3.4284   -3.7899    2.0819 N   0  0  1  0  0  0  0  0  0  0  0  0
    2.2190   -4.3389    2.7421 C   0  0  0  0  0  0  0  0  0  0  0  0
    3.9816   -4.5884    0.9454 C   0  0  1  0  0  0  0  0  0  0  0  0
    3.0810   -5.3718   -0.0544 C   0  0  1  0  0  0  0  0  0  0  0  0
    1.5958   -5.3578   -0.4331 C   0  0  0  0  0  0  0  0  0  0  0  0
    1.2736   -4.4802   -1.7077 C   0  0  0  0  0  0  0  0  0  0  0  0
    1.9770   -3.1271   -1.8375 C   0  0  1  0  0  0  0  0  0  0  0  0
    2.7093   -2.8863   -0.5494 C   0  0  2  0  0  0  0  0  0  0  0  0
    3.4216   -1.5470   -0.4194 C   0  0  2  0  0  0  0  0  0  0  0  0
    4.1478   -1.1674   -1.7406 C   0  0  1  0  0  0  0  0  0  0  0  0
    5.4192   -1.8764   -1.8773 C   0  0  0  0  0  0  0  0  0  0  0  0
    6.4270   -2.4345   -1.9662 N   0  0  0  0  0  0  0  0  0  0  0  0
    3.2607   -1.4594   -2.8605 N   0  0  0  0  0  0  0  0  0  0  0  0
    3.3448   -1.5046   -4.2313 C   0  0  0  0  0  0  0  0  0  0  0  0
    3.7462   -0.3862   -5.1929 C   0  0  0  0  0  0  0  0  0  0  0  0
    2.7582   -2.6883   -4.2861 C   0  0  0  0  0  0  0  0  0  0  0  0
    2.9303   -2.8641   -2.9094 N   0  0  0  0  0  0  0  0  0  0  0  0
    3.6712   -4.0398   -0.3751 C   0  0  1  0  0  0  0  0  0  0  0  0
    7.2990   -1.0282    1.8694 H   0  0  0  0  0  0  0  0  0  0  0  0
    6.0696   -1.6278    2.9743 H   0  0  0  0  0  0  0  0  0  0  0  0
    6.1834    0.1136    2.6728 H   0  0  0  0  0  0  0  0  0  0  0  0
    5.7652   -0.3904    0.1690 H   0  0  0  0  0  0  0  0  0  0  0  0
    3.9836   -2.0289    3.0044 H   0  0  0  0  0  0  0  0  0  0  0  0
    2.5248   -1.8734    2.1558 H   0  0  0  0  0  0  0  0  0  0  0  0
    1.3294   -3.9930    2.2276 H   0  0  0  0  0  0  0  0  0  0  0  0
    2.1586   -3.9480    3.7593 H   0  0  0  0  0  0  0  0  0  0  0  0
    2.2187   -5.4385    2.7915 H   0  0  0  0  0  0  0  0  0  0  0  0
    4.9711   -4.9969    1.1083 H   0  0  0  0  0  0  0  0  0  0  0  0
    3.6105   -6.2324   -0.4469 H   0  0  0  0  0  0  0  0  0  0  0  0
    1.2645   -6.3716   -0.6586 H   0  0  0  0  0  0  0  0  0  0  0  0
    1.0250   -5.0554    0.4252 H   0  0  0  0  0  0  0  0  0  0  0  0
    1.4131   -4.9663   -2.6492 H   0  0  0  0  0  0  0  0  0  0  0  0
    0.2014   -4.2591   -1.7098 H   0  0  0  0  0  0  0  0  0  0  0  0
    1.1546   -2.5046   -2.1285 H   0  0  0  0  0  0  0  0  0  0  0  0
    1.9169   -2.9091    0.1956 H   0  0  0  0  0  0  0  0  0  0  0  0
    2.6695   -0.7934   -0.2288 H   0  0  0  0  0  0  0  0  0  0  0  0
    4.3727   -0.1131   -1.7525 H   0  0  0  0  0  0  0  0  0  0  0  0
    3.6066   -0.6625   -6.2330 H   0  0  0  0  0  0  0  0  0  0  0  0
    4.7975   -0.1535   -5.0515 H   0  0  0  0  0  0  0  0  0  0  0  0
    3.1804    0.5295   -5.0451 H   0  0  0  0  0  0  0  0  0  0  0  0
    2.2774   -3.4627   -4.8610 H   0  0  0  0  0  0  0  0  0  0  0  0
    4.4405   -4.1054   -1.1252 H   0  0  0  0  0  0  0  0  0  0  0  0
    4.1380   -4.0433    2.7522 H   0  0  0  0  0  0  0  0  0  0  0  0
  1  2  1  0
  1 23  1  0
  1 24  1  0
  1 25  1  0
  2  3  2  3
  2 26  1  0
  3 13  1  0
  3  4  1  0
  4  5  1  0
  4 27  1  0
  4 28  1  0
  5  6  1  0
  5  7  1  0
  5 47  1  1
  6 29  1  0
  6 30  1  0
  6 31  1  0
  7 22  1  0
  7  8  1  0
  7 32  1  1
  8 22  1  0
  8  9  1  0
  8 33  1  6
  9 10  1  0
  9 34  1  0
  9 35  1  0
 10 11  1  0
 10 36  1  0
 10 37  1  0
 11 21  1  0
 11 12  1  0
 11 38  1  6
 12 13  1  0
 12 22  1  0
 12 39  1  1
 13 14  1  0
 13 40  1  1
 14 15  1  0
 14 17  1  0
 14 41  1  1
 15 16  3  0
 17 21  1  0
 17 18  1  0
 18 19  1  0
 18 20  2  0
 19 42  1  0
 19 43  1  0
 19 44  1  0
 20 21  1  0
 20 45  1  0
 22 46  1  6
M  CHG  1   5   1
M  END
>  <i_m_ct_stereo_status>  (100) 
1

>  <s_m_source_file>  (100) 
/var/tmp/pbs.5076255.sched01/tmpgskxq70o/44i51uky9l.sdf

>  <i_m_source_file_index>  (100) 
6

>  <i_lp_mmshare_version>  (100) 
48012

>  <i_f3d_flags>  (100) 
0

>  <s_epik_input>  (100) 
W0NIM11OMVtDSDJdL0MoPVtDSF1cW0NIM10pW0NASF0yW0NAQEhdKEMjTiluKGMoW0NIM10pW2NIXTMpbjNbQ0BASF0oW0NIMl1bQ0gyXTQpW0NASF0yW0NAQEhdNVtDQEhdNFtDQEhdMTU=

>  <s_epik_cmdline>  (100) 
J2VwaWtfcHl0aG9uJywgJy1waHQnLCAnMi4wJywgJy1waCcsICc3LjAnLCAnLXRuJywgJzgnLCAnLW1hJywgJzIwMCcsICctaW1hZScsICc8aW5maWxlLm1hZT4nLCAnLW9tYWUnLCAnPG91dGZpbGUubWFlPic=

>  <r_epik_Ionization_Penalty>  (100) 
0.916274

>  <r_epik_Ionization_Penalty_Charging>  (100) 
0.91627

>  <r_epik_Ionization_Penalty_Neutral>  (100) 
4.02601e-06

>  <r_epik_State_Penalty>  (100) 
0.957526

>  <r_epik_Charging_Adjusted_Penalty>  (100) 
1.8738

>  <i_epik_Tot_Q>  (100) 
1

>  <i_epik_Tot_abs_Q>  (100) 
1

>  <s_lp_Force_Field>  (100) 
OPLS3e

>  <r_lp_Energy>  (100) 
61.3134

>  <b_lp_Chiralities_Consistent>  (100) 
1

>  <s_lp_Variant>  (100) 
32:0-3

>  <s_i_glide_gridfile>  (100) 
pfpi4k_grid

>  <i_i_glide_lignum>  (100) 
6

>  <i_i_glide_rotatable_bonds>  (100) 
1

>  <r_i_docking_score>  (100) 
-2.34858

>  <r_i_glide_ligand_efficiency>  (100) 
-0.106754

>  <r_i_glide_ligand_efficiency_sa>  (100) 
-0.299128

>  <r_i_glide_ligand_efficiency_ln>  (100) 
-0.574078

>  <r_i_glide_gscore>  (100) 
-2.34858

>  <r_i_glide_lipo>  (100) 
-0.337275

>  <r_i_glide_hbond>  (100) 
-0.0659618

>  <r_i_glide_metal>  (100) 
-0

>  <r_i_glide_rewards>  (100) 
-1.38124

>  <r_i_glide_evdw>  (100) 
-2.68104

>  <r_i_glide_ecoul>  (100) 
-2.91984

>  <r_i_glide_erotb>  (100) 
0

>  <r_i_glide_esite>  (100) 
-0.0667709

>  <r_i_glide_emodel>  (100) 
-3.86995

>  <r_i_glide_energy>  (100) 
-5.60088

>  <r_i_glide_einternal>  (100) 
0.198796

>  <r_i_glide_intrahb_reward>  (100) 
-0

>  <i_i_glide_confnum>  (100) 
1

>  <i_i_glide_posenum>  (100) 
38

>  <r_i_glide_eff_state_penalty>  (100) 
0

>  <ligand_id>  (100) 
32

>  <original_smiles>  (100) 
CC=C1CN(C)C2C3CCC4C(C1C(C#N)n1c(C)cn14)C32

>  <smiles>  (100) 
[H]C(=C1C2([H])C([H])(C#N)n3c(C([H])([H])[H])c([H])n3C3([H])C([H])([H])C([H])([H])C4([H])C([H])(C23[H])C4([H])[N+]([H])(C([H])([H])[H])C1([H])[H])C([H])([H])[H]

$$$$
33:3:0
     RDKit          3D

 60 65  0  0  1  0  0  0  0  0999 V2000
    4.7766   -5.1895    7.2472 C   0  0  0  0  0  0  0  0  0  0  0  0
    5.2862   -5.0241    5.8060 C   0  0  0  0  0  0  0  0  0  0  0  0
    6.0438   -6.1983    5.3635 N   0  0  0  0  0  0  0  0  0  0  0  0
    5.2327   -7.4001    5.1479 C   0  0  0  0  0  0  0  0  0  0  0  0
    4.9802   -7.7514    3.6667 C   0  0  0  0  0  0  0  0  0  0  0  0
    4.7893   -6.5407    2.7205 C   0  0  2  0  0  0  0  0  0  0  0  0
    6.0461   -5.6359    2.9289 C   0  0  1  0  0  0  0  0  0  0  0  0
    6.8815   -5.9304    4.2013 C   0  0  0  0  0  0  0  0  0  0  0  0
    6.8433   -5.6622    1.5900 C   0  0  0  0  0  0  0  0  0  0  0  0
    7.7748   -4.4388    1.4110 C   0  0  0  0  0  0  0  0  0  0  0  0
    7.7575   -6.9111    1.4620 C   0  0  0  0  0  0  0  0  0  0  0  0
    5.7034   -5.8045    0.5477 C   0  0  2  0  0  0  0  0  0  0  0  0
    5.0815   -4.4620    0.0582 C   0  0  0  0  0  0  0  0  0  0  0  0
    5.0201   -4.2864   -1.1653 O   0  0  0  0  0  0  0  0  0  0  0  0
    4.6815   -3.3577    1.0047 C   0  0  0  0  0  0  0  0  0  0  0  0
    5.2380   -2.1144    0.6027 C   0  0  0  0  0  0  0  0  0  0  0  0
    5.0111   -0.9233    1.2987 C   0  0  0  0  0  0  0  0  0  0  0  0
    4.1858   -0.9432    2.4222 C   0  0  0  0  0  0  0  0  0  0  0  0
    3.5941   -2.1499    2.8316 C   0  0  0  0  0  0  0  0  0  0  0  0
    3.7993   -3.3890    2.1606 C   0  0  0  0  0  0  0  0  0  0  0  0
    3.0146   -4.5506    2.7857 C   0  0  0  0  0  0  0  0  0  0  0  0
    2.1103   -4.3019    3.5894 O   0  0  0  0  0  0  0  0  0  0  0  0
    3.3375   -6.0094    2.4844 C   0  0  2  0  0  0  0  0  0  0  0  0
    2.1621   -6.9918    2.7555 C   0  0  0  0  0  0  0  0  0  0  0  0
    2.0238   -8.1950    1.7548 C   0  0  0  0  0  0  0  0  0  0  0  0
    3.2922   -8.9598    1.2580 C   0  0  0  0  0  0  0  0  0  0  0  0
    4.4379   -8.1372    0.5897 C   0  0  0  0  0  0  0  0  0  0  0  0
    4.6930   -6.7519    1.2043 C   0  0  1  0  0  0  0  0  0  0  0  0
    3.4202   -6.1142    1.0753 O   0  0  0  0  0  0  0  0  0  0  0  0
    4.3077   -4.2690    7.5955 H   0  0  0  0  0  0  0  0  0  0  0  0
    5.5911   -5.4235    7.9355 H   0  0  0  0  0  0  0  0  0  0  0  0
    4.0269   -5.9760    7.3377 H   0  0  0  0  0  0  0  0  0  0  0  0
    4.4557   -4.8055    5.1364 H   0  0  0  0  0  0  0  0  0  0  0  0
    5.9458   -4.1556    5.7859 H   0  0  0  0  0  0  0  0  0  0  0  0
    5.7627   -8.2421    5.6048 H   0  0  0  0  0  0  0  0  0  0  0  0
    4.2778   -7.3197    5.6635 H   0  0  0  0  0  0  0  0  0  0  0  0
    5.8055   -8.3661    3.3099 H   0  0  0  0  0  0  0  0  0  0  0  0
    4.1254   -8.4183    3.6844 H   0  0  0  0  0  0  0  0  0  0  0  0
    5.7377   -4.6132    3.0869 H   0  0  0  0  0  0  0  0  0  0  0  0
    7.5255   -5.0853    4.4347 H   0  0  0  0  0  0  0  0  0  0  0  0
    7.5319   -6.7944    4.0597 H   0  0  0  0  0  0  0  0  0  0  0  0
    8.1561   -4.3626    0.3918 H   0  0  0  0  0  0  0  0  0  0  0  0
    8.6398   -4.5198    2.0688 H   0  0  0  0  0  0  0  0  0  0  0  0
    7.2944   -3.4976    1.6649 H   0  0  0  0  0  0  0  0  0  0  0  0
    8.1789   -6.9956    0.4578 H   0  0  0  0  0  0  0  0  0  0  0  0
    7.2343   -7.8439    1.6655 H   0  0  0  0  0  0  0  0  0  0  0  0
    8.6096   -6.8657    2.1405 H   0  0  0  0  0  0  0  0  0  0  0  0
    6.1202   -6.2503   -0.3364 H   0  0  0  0  0  0  0  0  0  0  0  0
    5.8820   -2.0695   -0.2634 H   0  0  0  0  0  0  0  0  0  0  0  0
    5.4686   -0.0028    0.9706 H   0  0  0  0  0  0  0  0  0  0  0  0
    3.9950   -0.0338    2.9693 H   0  0  0  0  0  0  0  0  0  0  0  0
    2.9530   -2.0943    3.6987 H   0  0  0  0  0  0  0  0  0  0  0  0
    2.2383   -7.3754    3.7697 H   0  0  0  0  0  0  0  0  0  0  0  0
    1.2006   -6.4775    2.7466 H   0  0  0  0  0  0  0  0  0  0  0  0
    1.3495   -8.9296    2.2013 H   0  0  0  0  0  0  0  0  0  0  0  0
    1.4923   -7.8337    0.8741 H   0  0  0  0  0  0  0  0  0  0  0  0
    3.6932   -9.6015    2.0425 H   0  0  0  0  0  0  0  0  0  0  0  0
    2.9525   -9.6924    0.5219 H   0  0  0  0  0  0  0  0  0  0  0  0
    5.3438   -8.7392    0.6187 H   0  0  0  0  0  0  0  0  0  0  0  0
    4.2186   -8.0252   -0.4697 H   0  0  0  0  0  0  0  0  0  0  0  0
  1  2  1  0
  1 30  1  0
  1 31  1  0
  1 32  1  0
  2  3  1  0
  2 33  1  0
  2 34  1  0
  3  8  1  0
  3  4  1  0
  4  5  1  0
  4 35  1  0
  4 36  1  0
  6  5  1  1
  5 37  1  0
  5 38  1  0
  6 23  1  0
  6 28  1  0
  6  7  1  0
  7  8  1  0
  7  9  1  0
  7 39  1  1
  8 40  1  0
  8 41  1  0
  9 10  1  0
  9 11  1  0
  9 12  1  0
 10 42  1  0
 10 43  1  0
 10 44  1  0
 11 45  1  0
 11 46  1  0
 11 47  1  0
 12 28  1  0
 12 13  1  0
 12 48  1  6
 13 14  2  0
 13 15  1  0
 15 20  2  0
 15 16  1  0
 16 17  2  0
 16 49  1  0
 17 18  1  0
 17 50  1  0
 18 19  2  0
 18 51  1  0
 19 20  1  0
 19 52  1  0
 20 21  1  0
 21 22  2  0
 21 23  1  0
 23 29  1  6
 23 24  1  0
 24 25  1  0
 24 53  1  0
 24 54  1  0
 25 26  1  0
 25 55  1  0
 25 56  1  0
 26 27  1  0
 26 57  1  0
 26 58  1  0
 27 28  1  0
 27 59  1  0
 27 60  1  0
 28 29  1  6
M  END
>  <i_m_ct_stereo_status>  (101) 
1

>  <s_m_source_file>  (101) 
/var/tmp/pbs.5076255.sched01/tmpgskxq70o/44i51uky9l.sdf

>  <i_m_source_file_index>  (101) 
11

>  <i_lp_mmshare_version>  (101) 
48012

>  <i_f3d_flags>  (101) 
0

>  <s_epik_input>  (101) 
W0NIM11bQ0gyXU4oW0NIMl1bQ0gyXTEpW0NIMl1bQ0BIXTJDKFtDSDNdKShbQ0gzXSlbQ0BASF0oW0NAQF0zKE80KVtDSDJdW0NIMl1bQ0gyXVtDSDJdNSlDKD1PKWMoYzZDKD1PKUM0NVtDQF0xMjMpW2NIXVtjSF1bY0hdW2NIXTY=

>  <s_epik_cmdline>  (101) 
J2VwaWtfcHl0aG9uJywgJy1waHQnLCAnMi4wJywgJy1waCcsICc3LjAnLCAnLXRuJywgJzgnLCAnLW1hJywgJzIwMCcsICctaW1hZScsICc8aW5maWxlLm1hZT4nLCAnLW9tYWUnLCAnPG91dGZpbGUubWFlPic=

>  <r_epik_Ionization_Penalty>  (101) 
2.25286

>  <r_epik_Ionization_Penalty_Charging>  (101) 
0

>  <r_epik_Ionization_Penalty_Neutral>  (101) 
2.25286

>  <r_epik_State_Penalty>  (101) 
2.40012

>  <r_epik_Charging_Adjusted_Penalty>  (101) 
2.40012

>  <i_epik_Tot_Q>  (101) 
0

>  <i_epik_Tot_abs_Q>  (101) 
0

>  <s_lp_Force_Field>  (101) 
OPLS3e

>  <r_lp_Energy>  (101) 
100.589

>  <b_lp_Chiralities_Consistent>  (101) 
1

>  <s_lp_Variant>  (101) 
33:0-4

>  <s_i_glide_gridfile>  (101) 
pfpi4k_grid

>  <i_i_glide_lignum>  (101) 
11

>  <i_i_glide_rotatable_bonds>  (101) 
1

>  <r_i_docking_score>  (101) 
-2.23648

>  <r_i_glide_ligand_efficiency>  (101) 
-0.0771199

>  <r_i_glide_ligand_efficiency_sa>  (101) 
-0.236937

>  <r_i_glide_ligand_efficiency_ln>  (101) 
-0.512097

>  <r_i_glide_gscore>  (101) 
-2.23648

>  <r_i_glide_lipo>  (101) 
-0.627102

>  <r_i_glide_hbond>  (101) 
0

>  <r_i_glide_metal>  (101) 
-0

>  <r_i_glide_rewards>  (101) 
-0.800134

>  <r_i_glide_evdw>  (101) 
-21.3113

>  <r_i_glide_ecoul>  (101) 
1.71373

>  <r_i_glide_erotb>  (101) 
0

>  <r_i_glide_esite>  (101) 
-0.00073671

>  <r_i_glide_emodel>  (101) 
-22.5364

>  <r_i_glide_energy>  (101) 
-19.5976

>  <r_i_glide_einternal>  (101) 
6.64468e-05

>  <r_i_glide_intrahb_reward>  (101) 
-0

>  <i_i_glide_confnum>  (101) 
2

>  <i_i_glide_posenum>  (101) 
37

>  <r_i_glide_eff_state_penalty>  (101) 
0

>  <ligand_id>  (101) 
33

>  <original_smiles>  (101) 
CCN1CCC23C(C1)C(C)(C)C1C(=O)c4ccccc4C(=O)C24CCCCC13O4

>  <smiles>  (101) 
[H]c1c([H])c([H])c2c(c1[H])C(=O)C1([H])C34OC(C2=O)(C([H])([H])C([H])([H])C([H])([H])C3([H])[H])C42C([H])([H])C([H])([H])N(C([H])([H])C([H])([H])[H])C([H])([H])C2([H])C1(C([H])([H])[H])C([H])([H])[H]

$$$$
33:3:1
     RDKit          3D

 60 65  0  0  1  0  0  0  0  0999 V2000
    4.0893   -5.9213    7.8167 C   0  0  0  0  0  0  0  0  0  0  0  0
    4.2104   -5.7715    6.2917 C   0  0  0  0  0  0  0  0  0  0  0  0
    4.4423   -7.0616    5.6354 N   0  0  0  0  0  0  0  0  0  0  0  0
    3.2881   -7.9655    5.6514 C   0  0  0  0  0  0  0  0  0  0  0  0
    2.5492   -8.0977    4.3033 C   0  0  0  0  0  0  0  0  0  0  0  0
    2.4685   -6.7972    3.4598 C   0  0  2  0  0  0  0  0  0  0  0  0
    3.9421   -6.3024    3.3070 C   0  0  1  0  0  0  0  0  0  0  0  0
    4.9718   -6.9277    4.2816 C   0  0  0  0  0  0  0  0  0  0  0  0
    4.3035   -6.4282    1.7960 C   0  0  0  0  0  0  0  0  0  0  0  0
    5.4695   -5.4974    1.3806 C   0  0  0  0  0  0  0  0  0  0  0  0
    4.7399   -7.8629    1.4020 C   0  0  0  0  0  0  0  0  0  0  0  0
    2.9376   -6.1625    1.1018 C   0  0  2  0  0  0  0  0  0  0  0  0
    2.6270   -4.6585    0.8388 C   0  0  0  0  0  0  0  0  0  0  0  0
    2.2329   -4.3708   -0.2915 O   0  0  0  0  0  0  0  0  0  0  0  0
    2.8397   -3.5783    1.8824 C   0  0  0  0  0  0  0  0  0  0  0  0
    3.6029   -2.5014    1.3457 C   0  0  0  0  0  0  0  0  0  0  0  0
    3.9281   -1.3627    2.0907 C   0  0  0  0  0  0  0  0  0  0  0  0
    3.4721   -1.2564    3.4056 C   0  0  0  0  0  0  0  0  0  0  0  0
    2.6890   -2.2839    3.9555 C   0  0  0  0  0  0  0  0  0  0  0  0
    2.3354   -3.4646    3.2383 C   0  0  0  0  0  0  0  0  0  0  0  0
    1.4459   -4.4112    4.0557 C   0  0  0  0  0  0  0  0  0  0  0  0
    0.9068   -3.9957    5.0849 O   0  0  0  0  0  0  0  0  0  0  0  0
    1.2289   -5.8640    3.6555 C   0  0  2  0  0  0  0  0  0  0  0  0
   -0.0606   -6.5029    4.2504 C   0  0  0  0  0  0  0  0  0  0  0  0
   -0.8151   -7.5193    3.3254 C   0  0  0  0  0  0  0  0  0  0  0  0
   -0.0090   -8.5526    2.4760 C   0  0  0  0  0  0  0  0  0  0  0  0
    1.0939   -8.0216    1.5092 C   0  0  0  0  0  0  0  0  0  0  0  0
    1.9075   -6.8294    2.0285 C   0  0  1  0  0  0  0  0  0  0  0  0
    0.8886   -5.8524    2.2772 O   0  0  0  0  0  0  0  0  0  0  0  0
    4.0251   -4.9444    8.2935 H   0  0  0  0  0  0  0  0  0  0  0  0
    4.9551   -6.4346    8.2364 H   0  0  0  0  0  0  0  0  0  0  0  0
    3.1985   -6.4745    8.1124 H   0  0  0  0  0  0  0  0  0  0  0  0
    3.3303   -5.2695    5.8922 H   0  0  0  0  0  0  0  0  0  0  0  0
    5.0615   -5.1214    6.0889 H   0  0  0  0  0  0  0  0  0  0  0  0
    3.6477   -8.9590    5.9344 H   0  0  0  0  0  0  0  0  0  0  0  0
    2.5766   -7.6706    6.4224 H   0  0  0  0  0  0  0  0  0  0  0  0
    3.0283   -8.8807    3.7195 H   0  0  0  0  0  0  0  0  0  0  0  0
    1.5774   -8.4996    4.5635 H   0  0  0  0  0  0  0  0  0  0  0  0
    4.0025   -5.2532    3.5601 H   0  0  0  0  0  0  0  0  0  0  0  0
    5.8708   -6.3138    4.3023 H   0  0  0  0  0  0  0  0  0  0  0  0
    5.2733   -7.9232    3.9573 H   0  0  0  0  0  0  0  0  0  0  0  0
    5.5609   -5.4313    0.2943 H   0  0  0  0  0  0  0  0  0  0  0  0
    6.4208   -5.8742    1.7602 H   0  0  0  0  0  0  0  0  0  0  0  0
    5.3744   -4.4863    1.7726 H   0  0  0  0  0  0  0  0  0  0  0  0
    4.8172   -7.9642    0.3167 H   0  0  0  0  0  0  0  0  0  0  0  0
    4.0412   -8.6274    1.7401 H   0  0  0  0  0  0  0  0  0  0  0  0
    5.7201   -8.1174    1.8077 H   0  0  0  0  0  0  0  0  0  0  0  0
    2.9361   -6.6409    0.1242 H   0  0  0  0  0  0  0  0  0  0  0  0
    3.9652   -2.5487    0.3294 H   0  0  0  0  0  0  0  0  0  0  0  0
    4.5265   -0.5745    1.6566 H   0  0  0  0  0  0  0  0  0  0  0  0
    3.7149   -0.3811    3.9935 H   0  0  0  0  0  0  0  0  0  0  0  0
    2.3548   -2.1297    4.9698 H   0  0  0  0  0  0  0  0  0  0  0  0
    0.1780   -6.9851    5.1952 H   0  0  0  0  0  0  0  0  0  0  0  0
   -0.7899   -5.7468    4.5301 H   0  0  0  0  0  0  0  0  0  0  0  0
   -1.5214   -8.0787    3.9429 H   0  0  0  0  0  0  0  0  0  0  0  0
   -1.4377   -6.9557    2.6299 H   0  0  0  0  0  0  0  0  0  0  0  0
    0.3860   -9.3484    3.1069 H   0  0  0  0  0  0  0  0  0  0  0  0
   -0.7385   -9.0860    1.8638 H   0  0  0  0  0  0  0  0  0  0  0  0
    1.7588   -8.8527    1.2722 H   0  0  0  0  0  0  0  0  0  0  0  0
    0.6215   -7.7490    0.5663 H   0  0  0  0  0  0  0  0  0  0  0  0
  1  2  1  0
  1 30  1  0
  1 31  1  0
  1 32  1  0
  2  3  1  0
  2 33  1  0
  2 34  1  0
  3  8  1  0
  3  4  1  0
  4  5  1  0
  4 35  1  0
  4 36  1  0
  6  5  1  1
  5 37  1  0
  5 38  1  0
  6 23  1  0
  6 28  1  0
  6  7  1  0
  7  8  1  0
  7  9  1  0
  7 39  1  1
  8 40  1  0
  8 41  1  0
  9 10  1  0
  9 11  1  0
  9 12  1  0
 10 42  1  0
 10 43  1  0
 10 44  1  0
 11 45  1  0
 11 46  1  0
 11 47  1  0
 12 28  1  0
 12 13  1  0
 12 48  1  6
 13 14  2  0
 13 15  1  0
 15 20  2  0
 15 16  1  0
 16 17  2  0
 16 49  1  0
 17 18  1  0
 17 50  1  0
 18 19  2  0
 18 51  1  0
 19 20  1  0
 19 52  1  0
 20 21  1  0
 21 22  2  0
 21 23  1  0
 23 29  1  6
 23 24  1  0
 24 25  1  0
 24 53  1  0
 24 54  1  0
 25 26  1  0
 25 55  1  0
 25 56  1  0
 26 27  1  0
 26 57  1  0
 26 58  1  0
 27 28  1  0
 27 59  1  0
 27 60  1  0
 28 29  1  1
M  END
>  <i_m_ct_stereo_status>  (102) 
1

>  <s_m_source_file>  (102) 
/var/tmp/pbs.5076255.sched01/tmpgskxq70o/44i51uky9l.sdf

>  <i_m_source_file_index>  (102) 
11

>  <i_lp_mmshare_version>  (102) 
48012

>  <i_f3d_flags>  (102) 
0

>  <s_epik_input>  (102) 
W0NIM11bQ0gyXU4oW0NIMl1bQ0gyXTEpW0NIMl1bQ0BIXTJDKFtDSDNdKShbQ0gzXSlbQ0BASF0oW0NAQF0zKE80KVtDSDJdW0NIMl1bQ0gyXVtDSDJdNSlDKD1PKWMoYzZDKD1PKUM0NVtDQF0xMjMpW2NIXVtjSF1bY0hdW2NIXTY=

>  <s_epik_cmdline>  (102) 
J2VwaWtfcHl0aG9uJywgJy1waHQnLCAnMi4wJywgJy1waCcsICc3LjAnLCAnLXRuJywgJzgnLCAnLW1hJywgJzIwMCcsICctaW1hZScsICc8aW5maWxlLm1hZT4nLCAnLW9tYWUnLCAnPG91dGZpbGUubWFlPic=

>  <r_epik_Ionization_Penalty>  (102) 
2.25286

>  <r_epik_Ionization_Penalty_Charging>  (102) 
0

>  <r_epik_Ionization_Penalty_Neutral>  (102) 
2.25286

>  <r_epik_State_Penalty>  (102) 
2.40012

>  <r_epik_Charging_Adjusted_Penalty>  (102) 
2.40012

>  <i_epik_Tot_Q>  (102) 
0

>  <i_epik_Tot_abs_Q>  (102) 
0

>  <s_lp_Force_Field>  (102) 
OPLS3e

>  <r_lp_Energy>  (102) 
100.589

>  <b_lp_Chiralities_Consistent>  (102) 
1

>  <s_lp_Variant>  (102) 
33:0-4

>  <s_i_glide_gridfile>  (102) 
pfpi4k_grid

>  <i_i_glide_lignum>  (102) 
11

>  <i_i_glide_rotatable_bonds>  (102) 
1

>  <r_i_docking_score>  (102) 
-2.04927

>  <r_i_glide_ligand_efficiency>  (102) 
-0.0706646

>  <r_i_glide_ligand_efficiency_sa>  (102) 
-0.217104

>  <r_i_glide_ligand_efficiency_ln>  (102) 
-0.469231

>  <r_i_glide_gscore>  (102) 
-2.04927

>  <r_i_glide_lipo>  (102) 
-0.160344

>  <r_i_glide_hbond>  (102) 
-0.0635646

>  <r_i_glide_metal>  (102) 
-0

>  <r_i_glide_rewards>  (102) 
-0.72601

>  <r_i_glide_evdw>  (102) 
-18.8998

>  <r_i_glide_ecoul>  (102) 
-0.81789

>  <r_i_glide_erotb>  (102) 
0

>  <r_i_glide_esite>  (102) 
-0.0316788

>  <r_i_glide_emodel>  (102) 
-22.4438

>  <r_i_glide_energy>  (102) 
-19.7177

>  <r_i_glide_einternal>  (102) 
0.00018277

>  <r_i_glide_intrahb_reward>  (102) 
-0

>  <i_i_glide_confnum>  (102) 
2

>  <i_i_glide_posenum>  (102) 
38

>  <r_i_glide_eff_state_penalty>  (102) 
0

>  <ligand_id>  (102) 
33

>  <original_smiles>  (102) 
CCN1CCC23C(C1)C(C)(C)C1C(=O)c4ccccc4C(=O)C24CCCCC13O4

>  <smiles>  (102) 
[H]c1c([H])c([H])c2c(c1[H])C(=O)C1([H])C34OC(C2=O)(C([H])([H])C([H])([H])C([H])([H])C3([H])[H])C42C([H])([H])C([H])([H])N(C([H])([H])C([H])([H])[H])C([H])([H])C2([H])C1(C([H])([H])[H])C([H])([H])[H]

$$$$
33:3:2
     RDKit          3D

 60 65  0  0  1  0  0  0  0  0999 V2000
    3.9324   -8.4414    8.4974 C   0  0  0  0  0  0  0  0  0  0  0  0
    4.0289   -8.0590    7.0122 C   0  0  0  0  0  0  0  0  0  0  0  0
    3.9390   -9.2259    6.1409 N   0  0  0  0  0  0  0  0  0  0  0  0
    2.6204   -9.8671    6.0952 C   0  0  0  0  0  0  0  0  0  0  0  0
    1.8200   -9.5892    4.8077 C   0  0  0  0  0  0  0  0  0  0  0  0
    1.9917   -8.1740    4.1966 C   0  0  2  0  0  0  0  0  0  0  0  0
    3.5234   -7.9934    4.0167 C   0  0  1  0  0  0  0  0  0  0  0  0
    4.4336   -8.9815    4.7867 C   0  0  0  0  0  0  0  0  0  0  0  0
    3.7972   -7.9198    2.4773 C   0  0  0  0  0  0  0  0  0  0  0  0
    5.1193   -7.1993    2.1289 C   0  0  0  0  0  0  0  0  0  0  0  0
    3.8853   -9.3224    1.8211 C   0  0  0  0  0  0  0  0  0  0  0  0
    2.4891   -7.2548    1.9455 C   0  0  2  0  0  0  0  0  0  0  0  0
    2.5257   -5.7014    1.9515 C   0  0  0  0  0  0  0  0  0  0  0  0
    2.1820   -5.1474    0.9016 O   0  0  0  0  0  0  0  0  0  0  0  0
    2.9959   -4.8829    3.1295 C   0  0  0  0  0  0  0  0  0  0  0  0
    3.9640   -3.9174    2.7193 C   0  0  0  0  0  0  0  0  0  0  0  0
    4.5711   -3.0173    3.6164 C   0  0  0  0  0  0  0  0  0  0  0  0
    4.2001   -3.0529    4.9693 C   0  0  0  0  0  0  0  0  0  0  0  0
    3.2264   -3.9726    5.4028 C   0  0  0  0  0  0  0  0  0  0  0  0
    2.5848   -4.9096    4.5307 C   0  0  0  0  0  0  0  0  0  0  0  0
    1.5469   -5.7833    5.2482 C   0  0  0  0  0  0  0  0  0  0  0  0
    1.1645   -5.4343    6.3703 O   0  0  0  0  0  0  0  0  0  0  0  0
    0.9939   -7.0506    4.6157 C   0  0  2  0  0  0  0  0  0  0  0  0
   -0.3709   -7.4853    5.2093 C   0  0  0  0  0  0  0  0  0  0  0  0
   -1.3666   -8.1447    4.1913 C   0  0  0  0  0  0  0  0  0  0  0  0
   -0.8474   -9.1612    3.1232 C   0  0  0  0  0  0  0  0  0  0  0  0
    0.3067   -8.7095    2.1765 C   0  0  0  0  0  0  0  0  0  0  0  0
    1.3761   -7.8295    2.8432 C   0  0  1  0  0  0  0  0  0  0  0  0
    0.6297   -6.7312    3.3118 O   0  0  0  0  0  0  0  0  0  0  0  0
    4.1042   -7.5707    9.1297 H   0  0  0  0  0  0  0  0  0  0  0  0
    4.6756   -9.1924    8.7636 H   0  0  0  0  0  0  0  0  0  0  0  0
    2.9527   -8.8359    8.7644 H   0  0  0  0  0  0  0  0  0  0  0  0
    3.2707   -7.3172    6.7662 H   0  0  0  0  0  0  0  0  0  0  0  0
    4.9960   -7.5808    6.8546 H   0  0  0  0  0  0  0  0  0  0  0  0
    2.7544  -10.9406    6.1884 H   0  0  0  0  0  0  0  0  0  0  0  0
    2.0185   -9.5695    6.9601 H   0  0  0  0  0  0  0  0  0  0  0  0
    2.0835  -10.3461    4.0697 H   0  0  0  0  0  0  0  0  0  0  0  0
    0.7881   -9.8210    5.0775 H   0  0  0  0  0  0  0  0  0  0  0  0
    3.8321   -7.0357    4.4236 H   0  0  0  0  0  0  0  0  0  0  0  0
    5.4481   -8.5847    4.8387 H   0  0  0  0  0  0  0  0  0  0  0  0
    4.4920   -9.9432    4.2844 H   0  0  0  0  0  0  0  0  0  0  0  0
    5.1822   -6.9663    1.0647 H   0  0  0  0  0  0  0  0  0  0  0  0
    5.9795   -7.8289    2.3674 H   0  0  0  0  0  0  0  0  0  0  0  0
    5.2683   -6.2751    2.6858 H   0  0  0  0  0  0  0  0  0  0  0  0
    3.9004   -9.2498    0.7310 H   0  0  0  0  0  0  0  0  0  0  0  0
    3.0484   -9.9711    2.0807 H   0  0  0  0  0  0  0  0  0  0  0  0
    4.7981   -9.8511    2.1026 H   0  0  0  0  0  0  0  0  0  0  0  0
    2.3346   -7.5520    0.9169 H   0  0  0  0  0  0  0  0  0  0  0  0
    4.2720   -3.8621    1.6903 H   0  0  0  0  0  0  0  0  0  0  0  0
    5.3099   -2.3194    3.2767 H   0  0  0  0  0  0  0  0  0  0  0  0
    4.6550   -2.3718    5.6687 H   0  0  0  0  0  0  0  0  0  0  0  0
    2.9815   -3.9365    6.4488 H   0  0  0  0  0  0  0  0  0  0  0  0
   -0.2100   -8.1704    6.0434 H   0  0  0  0  0  0  0  0  0  0  0  0
   -0.9022   -6.6490    5.6565 H   0  0  0  0  0  0  0  0  0  0  0  0
   -2.1519   -8.6517    4.7599 H   0  0  0  0  0  0  0  0  0  0  0  0
   -1.8752   -7.3428    3.6544 H   0  0  0  0  0  0  0  0  0  0  0  0
   -0.5972  -10.1145    3.5882 H   0  0  0  0  0  0  0  0  0  0  0  0
   -1.7010   -9.4272    2.4940 H   0  0  0  0  0  0  0  0  0  0  0  0
    0.7664   -9.6147    1.7722 H   0  0  0  0  0  0  0  0  0  0  0  0
   -0.1324   -8.1939    1.3277 H   0  0  0  0  0  0  0  0  0  0  0  0
  1  2  1  0
  1 30  1  0
  1 31  1  0
  1 32  1  0
  2  3  1  0
  2 33  1  0
  2 34  1  0
  3  8  1  0
  3  4  1  0
  4  5  1  0
  4 35  1  0
  4 36  1  0
  6  5  1  1
  5 37  1  0
  5 38  1  0
  6 23  1  0
  6 28  1  0
  6  7  1  0
  7  8  1  0
  7  9  1  0
  7 39  1  1
  8 40  1  0
  8 41  1  0
  9 10  1  0
  9 11  1  0
  9 12  1  0
 10 42  1  0
 10 43  1  0
 10 44  1  0
 11 45  1  0
 11 46  1  0
 11 47  1  0
 12 28  1  0
 12 13  1  0
 12 48  1  6
 13 14  2  0
 13 15  1  0
 15 20  2  0
 15 16  1  0
 16 17  2  0
 16 49  1  0
 17 18  1  0
 17 50  1  0
 18 19  2  0
 18 51  1  0
 19 20  1  0
 19 52  1  0
 20 21  1  0
 21 22  2  0
 21 23  1  0
 23 29  1  6
 23 24  1  0
 24 25  1  0
 24 53  1  0
 24 54  1  0
 25 26  1  0
 25 55  1  0
 25 56  1  0
 26 27  1  0
 26 57  1  0
 26 58  1  0
 27 28  1  0
 27 59  1  0
 27 60  1  0
 28 29  1  1
M  END
>  <i_m_ct_stereo_status>  (103) 
1

>  <s_m_source_file>  (103) 
/var/tmp/pbs.5076255.sched01/tmpgskxq70o/44i51uky9l.sdf

>  <i_m_source_file_index>  (103) 
11

>  <i_lp_mmshare_version>  (103) 
48012

>  <i_f3d_flags>  (103) 
0

>  <s_epik_input>  (103) 
W0NIM11bQ0gyXU4oW0NIMl1bQ0gyXTEpW0NIMl1bQ0BIXTJDKFtDSDNdKShbQ0gzXSlbQ0BASF0oW0NAQF0zKE80KVtDSDJdW0NIMl1bQ0gyXVtDSDJdNSlDKD1PKWMoYzZDKD1PKUM0NVtDQF0xMjMpW2NIXVtjSF1bY0hdW2NIXTY=

>  <s_epik_cmdline>  (103) 
J2VwaWtfcHl0aG9uJywgJy1waHQnLCAnMi4wJywgJy1waCcsICc3LjAnLCAnLXRuJywgJzgnLCAnLW1hJywgJzIwMCcsICctaW1hZScsICc8aW5maWxlLm1hZT4nLCAnLW9tYWUnLCAnPG91dGZpbGUubWFlPic=

>  <r_epik_Ionization_Penalty>  (103) 
2.25286

>  <r_epik_Ionization_Penalty_Charging>  (103) 
0

>  <r_epik_Ionization_Penalty_Neutral>  (103) 
2.25286

>  <r_epik_State_Penalty>  (103) 
2.40012

>  <r_epik_Charging_Adjusted_Penalty>  (103) 
2.40012

>  <i_epik_Tot_Q>  (103) 
0

>  <i_epik_Tot_abs_Q>  (103) 
0

>  <s_lp_Force_Field>  (103) 
OPLS3e

>  <r_lp_Energy>  (103) 
100.589

>  <b_lp_Chiralities_Consistent>  (103) 
1

>  <s_lp_Variant>  (103) 
33:0-4

>  <s_i_glide_gridfile>  (103) 
pfpi4k_grid

>  <i_i_glide_lignum>  (103) 
11

>  <i_i_glide_rotatable_bonds>  (103) 
1

>  <r_i_docking_score>  (103) 
-1.98286

>  <r_i_glide_ligand_efficiency>  (103) 
-0.0683746

>  <r_i_glide_ligand_efficiency_sa>  (103) 
-0.210068

>  <r_i_glide_ligand_efficiency_ln>  (103) 
-0.454025

>  <r_i_glide_gscore>  (103) 
-1.98286

>  <r_i_glide_lipo>  (103) 
-0.0497816

>  <r_i_glide_hbond>  (103) 
-0.0238276

>  <r_i_glide_metal>  (103) 
-0

>  <r_i_glide_rewards>  (103) 
-0.72601

>  <r_i_glide_evdw>  (103) 
-18.4575

>  <r_i_glide_ecoul>  (103) 
-1.64622

>  <r_i_glide_erotb>  (103) 
0

>  <r_i_glide_esite>  (103) 
-0.013434

>  <r_i_glide_emodel>  (103) 
-22.6593

>  <r_i_glide_energy>  (103) 
-20.1037

>  <r_i_glide_einternal>  (103) 
0.000257936

>  <r_i_glide_intrahb_reward>  (103) 
-0

>  <i_i_glide_confnum>  (103) 
1

>  <i_i_glide_posenum>  (103) 
16

>  <r_i_glide_eff_state_penalty>  (103) 
0

>  <ligand_id>  (103) 
33

>  <original_smiles>  (103) 
CCN1CCC23C(C1)C(C)(C)C1C(=O)c4ccccc4C(=O)C24CCCCC13O4

>  <smiles>  (103) 
[H]c1c([H])c([H])c2c(c1[H])C(=O)C1([H])C34OC(C2=O)(C([H])([H])C([H])([H])C([H])([H])C3([H])[H])C42C([H])([H])C([H])([H])N(C([H])([H])C([H])([H])[H])C([H])([H])C2([H])C1(C([H])([H])[H])C([H])([H])[H]

$$$$
36:0:0
     RDKit          3D

 57 60  0  0  1  0  0  0  0  0999 V2000
    4.3353   -1.9091   -2.1995 C   0  0  0  0  0  0  0  0  0  0  0  0
    4.7738   -2.9901   -1.2255 C   0  0  2  0  0  0  0  0  0  0  0  0
    5.0063   -4.1455   -2.0227 O   0  0  0  0  0  0  0  0  0  0  0  0
    3.7939   -3.2757   -0.0415 C   0  0  2  0  0  0  0  0  0  0  0  0
    3.5375   -2.0477    0.8862 C   0  0  0  0  0  0  0  0  0  0  0  0
    3.4951   -2.5527    2.3489 C   0  0  0  0  0  0  0  0  0  0  0  0
    3.3414   -4.0769    2.1738 C   0  0  2  0  0  0  0  0  0  0  0  0
    3.6960   -5.0350    3.3420 C   0  0  1  0  0  0  0  0  0  0  0  0
    2.9875   -4.7218    4.6646 C   0  0  0  0  0  0  0  0  0  0  0  0
    1.5796   -5.2902    4.7190 C   0  0  0  0  0  0  0  0  0  0  0  0
    1.1071   -6.2554    3.9141 C   0  0  0  0  0  0  0  0  0  0  0  0
   -0.3248   -6.7465    4.0483 C   0  0  0  0  0  0  0  0  0  0  0  0
   -0.3912   -8.2814    4.1600 C   0  0  1  0  0  0  0  0  0  0  0  0
   -1.7502   -8.6740    4.0954 O   0  0  0  0  0  0  0  0  0  0  0  0
    0.3940   -9.0103    3.0562 C   0  0  0  0  0  0  0  0  0  0  0  0
    1.8467   -8.4982    3.0259 C   0  0  0  0  0  0  0  0  0  0  0  0
    1.9224   -6.9575    2.8039 C   0  0  1  0  0  0  0  0  0  0  0  0
    1.2517   -6.6459    1.4345 C   0  0  0  0  0  0  0  0  0  0  0  0
    3.4454   -6.5093    2.8653 C   0  0  1  0  0  0  0  0  0  0  0  0
    4.2349   -6.8478    1.5696 C   0  0  0  0  0  0  0  0  0  0  0  0
    3.9901   -5.8390    0.4241 C   0  0  0  0  0  0  0  0  0  0  0  0
    4.2568   -4.3831    0.9329 C   0  0  1  0  0  0  0  0  0  0  0  0
    5.7844   -4.2271    1.2419 C   0  0  0  0  0  0  0  0  0  0  0  0
    4.2172   -0.9644   -1.6806 H   0  0  0  0  0  0  0  0  0  0  0  0
    3.4041   -2.1819   -2.6862 H   0  0  0  0  0  0  0  0  0  0  0  0
    5.1135   -1.7917   -2.9515 H   0  0  0  0  0  0  0  0  0  0  0  0
    5.7291   -2.6505   -0.8296 H   0  0  0  0  0  0  0  0  0  0  0  0
    4.2017   -4.5994   -2.1679 H   0  0  0  0  0  0  0  0  0  0  0  0
    2.8166   -3.5666   -0.4666 H   0  0  0  0  0  0  0  0  0  0  0  0
    4.3347   -1.3148    0.7681 H   0  0  0  0  0  0  0  0  0  0  0  0
    2.6043   -1.5420    0.5958 H   0  0  0  0  0  0  0  0  0  0  0  0
    4.4063   -2.2796    2.8860 H   0  0  0  0  0  0  0  0  0  0  0  0
    2.6607   -2.1235    2.8973 H   0  0  0  0  0  0  0  0  0  0  0  0
    2.2897   -4.1853    1.9625 H   0  0  0  0  0  0  0  0  0  0  0  0
    4.7427   -4.9150    3.6158 H   0  0  0  0  0  0  0  0  0  0  0  0
    3.5503   -5.1559    5.4931 H   0  0  0  0  0  0  0  0  0  0  0  0
    2.9699   -3.6438    4.8467 H   0  0  0  0  0  0  0  0  0  0  0  0
    0.9381   -4.8285    5.4730 H   0  0  0  0  0  0  0  0  0  0  0  0
   -0.8280   -6.2538    4.8861 H   0  0  0  0  0  0  0  0  0  0  0  0
   -0.8661   -6.4079    3.1718 H   0  0  0  0  0  0  0  0  0  0  0  0
    0.0204   -8.5680    5.1279 H   0  0  0  0  0  0  0  0  0  0  0  0
   -1.8302   -9.5554    4.4082 H   0  0  0  0  0  0  0  0  0  0  0  0
    0.3651  -10.0970    3.1907 H   0  0  0  0  0  0  0  0  0  0  0  0
   -0.0926   -8.8782    2.0895 H   0  0  0  0  0  0  0  0  0  0  0  0
    2.3508   -8.8130    3.9454 H   0  0  0  0  0  0  0  0  0  0  0  0
    2.3783   -9.0157    2.2273 H   0  0  0  0  0  0  0  0  0  0  0  0
    1.7362   -7.2314    0.6522 H   0  0  0  0  0  0  0  0  0  0  0  0
    1.3219   -5.6469    1.1612 H   0  0  0  0  0  0  0  0  0  0  0  0
    0.1845   -6.9164    1.3910 H   0  0  0  0  0  0  0  0  0  0  0  0
    3.9173   -7.1038    3.6483 H   0  0  0  0  0  0  0  0  0  0  0  0
    5.2873   -6.9045    1.8043 H   0  0  0  0  0  0  0  0  0  0  0  0
    4.0227   -7.8548    1.2252 H   0  0  0  0  0  0  0  0  0  0  0  0
    4.7213   -6.0830   -0.3664 H   0  0  0  0  0  0  0  0  0  0  0  0
    3.0180   -5.9343   -0.0158 H   0  0  0  0  0  0  0  0  0  0  0  0
    6.1474   -4.8764    2.0372 H   0  0  0  0  0  0  0  0  0  0  0  0
    6.0597   -3.2156    1.5337 H   0  0  0  0  0  0  0  0  0  0  0  0
    6.3902   -4.4769    0.3701 H   0  0  0  0  0  0  0  0  0  0  0  0
  1  2  1  0
  1 24  1  0
  1 25  1  0
  1 26  1  0
  2  3  1  0
  2  4  1  0
  2 27  1  1
  3 28  1  0
  4 22  1  0
  4  5  1  0
  4 29  1  6
  5  6  1  0
  5 30  1  0
  5 31  1  0
  6  7  1  0
  6 32  1  0
  6 33  1  0
  7 22  1  0
  7  8  1  0
  7 34  1  6
  8 19  1  0
  8  9  1  0
  8 35  1  1
  9 10  1  0
  9 36  1  0
  9 37  1  0
 10 11  2  0
 10 38  1  0
 11 17  1  0
 11 12  1  0
 12 13  1  0
 12 39  1  0
 12 40  1  0
 13 14  1  0
 13 15  1  0
 13 41  1  1
 14 42  1  0
 15 16  1  0
 15 43  1  0
 15 44  1  0
 16 17  1  0
 16 45  1  0
 16 46  1  0
 17 18  1  6
 17 19  1  0
 18 47  1  0
 18 48  1  0
 18 49  1  0
 19 20  1  0
 19 50  1  1
 20 21  1  0
 20 51  1  0
 20 52  1  0
 21 22  1  0
 21 53  1  0
 21 54  1  0
 22 23  1  1
 23 55  1  0
 23 56  1  0
 23 57  1  0
M  END
>  <i_m_ct_stereo_status>  (104) 
1

>  <s_m_source_file>  (104) 
/var/tmp/pbs.5076255.sched01/tmpgskxq70o/44i51uky9l.sdf

>  <i_m_source_file_index>  (104) 
14

>  <i_lp_mmshare_version>  (104) 
48012

>  <i_f3d_flags>  (104) 
0

>  <s_epik_input>  (104) 
W0NIM11bQ0BIXShbT0hdKVtDQEhdKFtDSDJdW0NIMl0xKVtDQF0oW0NIM10pKFtDSDJdW0NIMl1bQ0BASF0yMylbQ0BIXTFbQ0BIXTJbQ0gyXVtDSF09QyhbQ0BAXTM0W0NIM10pW0NIMl1bQ0BASF0oW09IXSlbQ0gyXVtDSDJdNA==

>  <s_epik_cmdline>  (104) 
J2VwaWtfcHl0aG9uJywgJy1waHQnLCAnMi4wJywgJy1waCcsICc3LjAnLCAnLXRuJywgJzgnLCAnLW1hJywgJzIwMCcsICctaW1hZScsICc8aW5maWxlLm1hZT4nLCAnLW9tYWUnLCAnPG91dGZpbGUubWFlPic=

>  <r_lp_tautomer_probability>  (104) 
1

>  <r_epik_Ionization_Penalty>  (104) 
2.18359e-06

>  <r_epik_Ionization_Penalty_Charging>  (104) 
0

>  <r_epik_Ionization_Penalty_Neutral>  (104) 
2.18359e-06

>  <r_epik_State_Penalty>  (104) 
-0

>  <r_epik_Charging_Adjusted_Penalty>  (104) 
0

>  <i_epik_Tot_Q>  (104) 
0

>  <i_epik_Tot_abs_Q>  (104) 
0

>  <s_lp_Force_Field>  (104) 
OPLS3e

>  <r_lp_Energy>  (104) 
41.3188

>  <b_lp_Chiralities_Consistent>  (104) 
1

>  <s_lp_Variant>  (104) 
36:0-1

>  <s_i_glide_gridfile>  (104) 
pfpi4k_grid

>  <i_i_glide_lignum>  (104) 
14

>  <i_i_glide_rotatable_bonds>  (104) 
3

>  <r_i_docking_score>  (104) 
-3.96679

>  <r_i_glide_ligand_efficiency>  (104) 
-0.172469

>  <r_i_glide_ligand_efficiency_sa>  (104) 
-0.490479

>  <r_i_glide_ligand_efficiency_ln>  (104) 
-0.959205

>  <r_i_glide_gscore>  (104) 
-3.96679

>  <r_i_glide_lipo>  (104) 
-0.250101

>  <r_i_glide_hbond>  (104) 
-0.456

>  <r_i_glide_metal>  (104) 
-0

>  <r_i_glide_rewards>  (104) 
-1.23754

>  <r_i_glide_evdw>  (104) 
-24.0603

>  <r_i_glide_ecoul>  (104) 
-6.69293

>  <r_i_glide_erotb>  (104) 
0.183813

>  <r_i_glide_esite>  (104) 
0

>  <r_i_glide_emodel>  (104) 
-36.1087

>  <r_i_glide_energy>  (104) 
-30.7532

>  <r_i_glide_einternal>  (104) 
0.680494

>  <r_i_glide_intrahb_reward>  (104) 
-0

>  <i_i_glide_confnum>  (104) 
4

>  <i_i_glide_posenum>  (104) 
9

>  <r_i_glide_eff_state_penalty>  (104) 
0

>  <ligand_id>  (104) 
36

>  <original_smiles>  (104) 
CC(O)C1CCC2C3CC=C4CC(O)CCC4(C)C3CCC12C

>  <smiles>  (104) 
[H]OC1([H])C([H])([H])C2=C([H])C([H])([H])C3([H])C([H])(C([H])([H])C([H])([H])C4(C([H])([H])[H])C([H])(C([H])(O[H])C([H])([H])[H])C([H])([H])C([H])([H])C34[H])C2(C([H])([H])[H])C([H])([H])C1([H])[H]

$$$$
36:0:1
     RDKit          3D

 57 60  0  0  1  0  0  0  0  0999 V2000
   -1.0010   -9.1936    2.4417 C   0  0  0  0  0  0  0  0  0  0  0  0
   -0.1236   -8.1489    3.1280 C   0  0  2  0  0  0  0  0  0  0  0  0
   -1.0062   -7.0863    3.4553 O   0  0  0  0  0  0  0  0  0  0  0  0
    1.1036   -7.6466    2.3016 C   0  0  2  0  0  0  0  0  0  0  0  0
    2.0622   -8.7735    1.8146 C   0  0  0  0  0  0  0  0  0  0  0  0
    3.5106   -8.2503    1.9656 C   0  0  0  0  0  0  0  0  0  0  0  0
    3.3127   -6.7439    2.1876 C   0  0  2  0  0  0  0  0  0  0  0  0
    4.4471   -5.8994    2.8143 C   0  0  1  0  0  0  0  0  0  0  0  0
    5.8139   -6.0219    2.1111 C   0  0  0  0  0  0  0  0  0  0  0  0
    5.9336   -5.1323    0.8946 C   0  0  0  0  0  0  0  0  0  0  0  0
    5.1200   -4.0788    0.6235 C   0  0  0  0  0  0  0  0  0  0  0  0
    5.3265   -3.2621   -0.6323 C   0  0  0  0  0  0  0  0  0  0  0  0
    5.4161   -1.7533   -0.3137 C   0  0  1  0  0  0  0  0  0  0  0  0
    5.4163   -1.0473   -1.5240 O   0  0  0  0  0  0  0  0  0  0  0  0
    4.2686   -1.2381    0.5737 C   0  0  0  0  0  0  0  0  0  0  0  0
    4.1772   -2.0915    1.8508 C   0  0  0  0  0  0  0  0  0  0  0  0
    3.9766   -3.6143    1.5461 C   0  0  1  0  0  0  0  0  0  0  0  0
    2.6560   -3.7213    0.7502 C   0  0  0  0  0  0  0  0  0  0  0  0
    3.9592   -4.4130    2.9023 C   0  0  1  0  0  0  0  0  0  0  0  0
    2.6214   -4.2819    3.6805 C   0  0  0  0  0  0  0  0  0  0  0  0
    1.5080   -5.2139    3.1674 C   0  0  0  0  0  0  0  0  0  0  0  0
    2.0283   -6.6630    3.0561 C   0  0  1  0  0  0  0  0  0  0  0  0
    2.2678   -7.1896    4.5195 C   0  0  0  0  0  0  0  0  0  0  0  0
   -0.4119  -10.0781    2.2037 H   0  0  0  0  0  0  0  0  0  0  0  0
   -1.4485   -8.8018    1.5278 H   0  0  0  0  0  0  0  0  0  0  0  0
   -1.8002   -9.5128    3.1268 H   0  0  0  0  0  0  0  0  0  0  0  0
    0.2254   -8.6239    4.0429 H   0  0  0  0  0  0  0  0  0  0  0  0
   -1.5352   -7.3751    4.1968 H   0  0  0  0  0  0  0  0  0  0  0  0
    0.7213   -7.1355    1.4149 H   0  0  0  0  0  0  0  0  0  0  0  0
    1.9186   -9.6765    2.4068 H   0  0  0  0  0  0  0  0  0  0  0  0
    1.8240   -9.0339    0.7758 H   0  0  0  0  0  0  0  0  0  0  0  0
    4.0039   -8.7458    2.8093 H   0  0  0  0  0  0  0  0  0  0  0  0
    4.1013   -8.4727    1.0738 H   0  0  0  0  0  0  0  0  0  0  0  0
    3.1379   -6.3524    1.1754 H   0  0  0  0  0  0  0  0  0  0  0  0
    4.6515   -6.2770    3.8198 H   0  0  0  0  0  0  0  0  0  0  0  0
    6.6088   -5.7448    2.8092 H   0  0  0  0  0  0  0  0  0  0  0  0
    6.0149   -7.0637    1.8441 H   0  0  0  0  0  0  0  0  0  0  0  0
    6.7207   -5.4197    0.1994 H   0  0  0  0  0  0  0  0  0  0  0  0
    6.2016   -3.6060   -1.1933 H   0  0  0  0  0  0  0  0  0  0  0  0
    4.4876   -3.4729   -1.2907 H   0  0  0  0  0  0  0  0  0  0  0  0
    6.3534   -1.5620    0.2074 H   0  0  0  0  0  0  0  0  0  0  0  0
    5.0171   -0.1872   -1.3688 H   0  0  0  0  0  0  0  0  0  0  0  0
    4.3938   -0.1784    0.8224 H   0  0  0  0  0  0  0  0  0  0  0  0
    3.3236   -1.2508    0.0257 H   0  0  0  0  0  0  0  0  0  0  0  0
    5.0687   -1.9102    2.4629 H   0  0  0  0  0  0  0  0  0  0  0  0
    3.3518   -1.7219    2.4541 H   0  0  0  0  0  0  0  0  0  0  0  0
    1.8388   -3.2653    1.2932 H   0  0  0  0  0  0  0  0  0  0  0  0
    2.3775   -4.7405    0.5443 H   0  0  0  0  0  0  0  0  0  0  0  0
    2.6679   -3.2226   -0.2082 H   0  0  0  0  0  0  0  0  0  0  0  0
    4.7107   -3.9511    3.5416 H   0  0  0  0  0  0  0  0  0  0  0  0
    2.8124   -4.5018    4.7261 H   0  0  0  0  0  0  0  0  0  0  0  0
    2.2770   -3.2580    3.7010 H   0  0  0  0  0  0  0  0  0  0  0  0
    0.6844   -5.1703    3.8824 H   0  0  0  0  0  0  0  0  0  0  0  0
    1.1199   -4.8913    2.2003 H   0  0  0  0  0  0  0  0  0  0  0  0
    3.0522   -6.6443    5.0585 H   0  0  0  0  0  0  0  0  0  0  0  0
    2.5512   -8.2494    4.5629 H   0  0  0  0  0  0  0  0  0  0  0  0
    1.3537   -7.1093    5.1252 H   0  0  0  0  0  0  0  0  0  0  0  0
  1  2  1  0
  1 24  1  0
  1 25  1  0
  1 26  1  0
  2  3  1  0
  2  4  1  0
  2 27  1  1
  3 28  1  0
  4 22  1  0
  4  5  1  0
  4 29  1  6
  5  6  1  0
  5 30  1  0
  5 31  1  0
  6  7  1  0
  6 32  1  0
  6 33  1  0
  7 22  1  0
  7  8  1  0
  7 34  1  6
  8 19  1  0
  8  9  1  0
  8 35  1  1
  9 10  1  0
  9 36  1  0
  9 37  1  0
 10 11  2  0
 10 38  1  0
 11 17  1  0
 11 12  1  0
 12 13  1  0
 12 39  1  0
 12 40  1  0
 13 14  1  0
 13 15  1  0
 13 41  1  1
 14 42  1  0
 15 16  1  0
 15 43  1  0
 15 44  1  0
 16 17  1  0
 16 45  1  0
 16 46  1  0
 17 18  1  6
 17 19  1  0
 18 47  1  0
 18 48  1  0
 18 49  1  0
 19 20  1  0
 19 50  1  1
 20 21  1  0
 20 51  1  0
 20 52  1  0
 21 22  1  0
 21 53  1  0
 21 54  1  0
 22 23  1  1
 23 55  1  0
 23 56  1  0
 23 57  1  0
M  END
>  <i_m_ct_stereo_status>  (105) 
1

>  <s_m_source_file>  (105) 
/var/tmp/pbs.5076255.sched01/tmpgskxq70o/44i51uky9l.sdf

>  <i_m_source_file_index>  (105) 
14

>  <i_lp_mmshare_version>  (105) 
48012

>  <i_f3d_flags>  (105) 
0

>  <s_epik_input>  (105) 
W0NIM11bQ0BIXShbT0hdKVtDQEhdKFtDSDJdW0NIMl0xKVtDQF0oW0NIM10pKFtDSDJdW0NIMl1bQ0BASF0yMylbQ0BIXTFbQ0BIXTJbQ0gyXVtDSF09QyhbQ0BAXTM0W0NIM10pW0NIMl1bQ0BASF0oW09IXSlbQ0gyXVtDSDJdNA==

>  <s_epik_cmdline>  (105) 
J2VwaWtfcHl0aG9uJywgJy1waHQnLCAnMi4wJywgJy1waCcsICc3LjAnLCAnLXRuJywgJzgnLCAnLW1hJywgJzIwMCcsICctaW1hZScsICc8aW5maWxlLm1hZT4nLCAnLW9tYWUnLCAnPG91dGZpbGUubWFlPic=

>  <r_lp_tautomer_probability>  (105) 
1

>  <r_epik_Ionization_Penalty>  (105) 
2.18359e-06

>  <r_epik_Ionization_Penalty_Charging>  (105) 
0

>  <r_epik_Ionization_Penalty_Neutral>  (105) 
2.18359e-06

>  <r_epik_State_Penalty>  (105) 
-0

>  <r_epik_Charging_Adjusted_Penalty>  (105) 
0

>  <i_epik_Tot_Q>  (105) 
0

>  <i_epik_Tot_abs_Q>  (105) 
0

>  <s_lp_Force_Field>  (105) 
OPLS3e

>  <r_lp_Energy>  (105) 
41.3188

>  <b_lp_Chiralities_Consistent>  (105) 
1

>  <s_lp_Variant>  (105) 
36:0-1

>  <s_i_glide_gridfile>  (105) 
pfpi4k_grid

>  <i_i_glide_lignum>  (105) 
14

>  <i_i_glide_rotatable_bonds>  (105) 
3

>  <r_i_docking_score>  (105) 
-3.61283

>  <r_i_glide_ligand_efficiency>  (105) 
-0.15708

>  <r_i_glide_ligand_efficiency_sa>  (105) 
-0.446714

>  <r_i_glide_ligand_efficiency_ln>  (105) 
-0.873616

>  <r_i_glide_gscore>  (105) 
-3.61283

>  <r_i_glide_lipo>  (105) 
-0.435595

>  <r_i_glide_hbond>  (105) 
-0.218334

>  <r_i_glide_metal>  (105) 
-0

>  <r_i_glide_rewards>  (105) 
-1.23754

>  <r_i_glide_evdw>  (105) 
-25.2987

>  <r_i_glide_ecoul>  (105) 
-4.26827

>  <r_i_glide_erotb>  (105) 
0.183813

>  <r_i_glide_esite>  (105) 
0

>  <r_i_glide_emodel>  (105) 
-34.9379

>  <r_i_glide_energy>  (105) 
-29.5669

>  <r_i_glide_einternal>  (105) 
1.32694

>  <r_i_glide_intrahb_reward>  (105) 
-0

>  <i_i_glide_confnum>  (105) 
4

>  <i_i_glide_posenum>  (105) 
25

>  <r_i_glide_eff_state_penalty>  (105) 
0

>  <ligand_id>  (105) 
36

>  <original_smiles>  (105) 
CC(O)C1CCC2C3CC=C4CC(O)CCC4(C)C3CCC12C

>  <smiles>  (105) 
[H]OC1([H])C([H])([H])C2=C([H])C([H])([H])C3([H])C([H])(C([H])([H])C([H])([H])C4(C([H])([H])[H])C([H])(C([H])(O[H])C([H])([H])[H])C([H])([H])C([H])([H])C34[H])C2(C([H])([H])[H])C([H])([H])C1([H])[H]

$$$$
36:0:2
     RDKit          3D

 57 60  0  0  1  0  0  0  0  0999 V2000
   -1.0580   -9.2317    2.4359 C   0  0  0  0  0  0  0  0  0  0  0  0
   -0.1826   -8.1843    3.1185 C   0  0  2  0  0  0  0  0  0  0  0  0
   -1.0520   -7.0852    3.3561 O   0  0  0  0  0  0  0  0  0  0  0  0
    1.0996   -7.7538    2.3394 C   0  0  2  0  0  0  0  0  0  0  0  0
    2.0355   -8.9295    1.9313 C   0  0  0  0  0  0  0  0  0  0  0  0
    3.4916   -8.4538    2.1319 C   0  0  0  0  0  0  0  0  0  0  0  0
    3.3390   -6.9333    2.2960 C   0  0  2  0  0  0  0  0  0  0  0  0
    4.4769   -6.1029    2.9377 C   0  0  1  0  0  0  0  0  0  0  0  0
    5.8676   -6.3007    2.3041 C   0  0  0  0  0  0  0  0  0  0  0  0
    6.0807   -5.4682    1.0643 C   0  0  0  0  0  0  0  0  0  0  0  0
    5.3103   -4.3894    0.7155 C   0  0  0  0  0  0  0  0  0  0  0  0
    5.6084   -3.6282   -0.5563 C   0  0  0  0  0  0  0  0  0  0  0  0
    5.7409   -2.1150   -0.2836 C   0  0  1  0  0  0  0  0  0  0  0  0
    5.8170   -1.4540   -1.5197 O   0  0  0  0  0  0  0  0  0  0  0  0
    4.5793   -1.5196    0.5337 C   0  0  0  0  0  0  0  0  0  0  0  0
    4.3969   -2.3283    1.8328 C   0  0  0  0  0  0  0  0  0  0  0  0
    4.1551   -3.8535    1.5704 C   0  0  1  0  0  0  0  0  0  0  0  0
    2.8672   -3.9413    0.7175 C   0  0  0  0  0  0  0  0  0  0  0  0
    4.0405   -4.6003    2.9474 C   0  0  1  0  0  0  0  0  0  0  0  0
    2.6805   -4.3914    3.6575 C   0  0  0  0  0  0  0  0  0  0  0  0
    1.5559   -5.3043    3.1342 C   0  0  0  0  0  0  0  0  0  0  0  0
    2.0238   -6.7772    3.1053 C   0  0  1  0  0  0  0  0  0  0  0  0
    2.1760   -7.2542    4.5919 C   0  0  0  0  0  0  0  0  0  0  0  0
   -0.4866  -10.1431    2.2740 H   0  0  0  0  0  0  0  0  0  0  0  0
   -1.4467   -8.8750    1.4836 H   0  0  0  0  0  0  0  0  0  0  0  0
   -1.9009   -9.4937    3.0922 H   0  0  0  0  0  0  0  0  0  0  0  0
    0.1015   -8.6153    4.0746 H   0  0  0  0  0  0  0  0  0  0  0  0
   -1.6199   -7.3142    4.0860 H   0  0  0  0  0  0  0  0  0  0  0  0
    0.7802   -7.2612    1.4176 H   0  0  0  0  0  0  0  0  0  0  0  0
    1.8327   -9.8057    2.5447 H   0  0  0  0  0  0  0  0  0  0  0  0
    1.8389   -9.2047    0.8858 H   0  0  0  0  0  0  0  0  0  0  0  0
    3.9288   -8.9366    3.0129 H   0  0  0  0  0  0  0  0  0  0  0  0
    4.1108   -8.7305    1.2779 H   0  0  0  0  0  0  0  0  0  0  0  0
    3.2229   -6.5667    1.2626 H   0  0  0  0  0  0  0  0  0  0  0  0
    4.6206   -6.4525    3.9638 H   0  0  0  0  0  0  0  0  0  0  0  0
    6.6439   -6.0304    3.0269 H   0  0  0  0  0  0  0  0  0  0  0  0
    6.0453   -7.3597    2.0809 H   0  0  0  0  0  0  0  0  0  0  0  0
    6.8875   -5.7981    0.4220 H   0  0  0  0  0  0  0  0  0  0  0  0
    6.5006   -4.0126   -1.0562 H   0  0  0  0  0  0  0  0  0  0  0  0
    4.7958   -3.8369   -1.2473 H   0  0  0  0  0  0  0  0  0  0  0  0
    6.6693   -1.9439    0.2679 H   0  0  0  0  0  0  0  0  0  0  0  0
    4.9753   -1.5615   -1.9651 H   0  0  0  0  0  0  0  0  0  0  0  0
    4.7427   -0.4575    0.7489 H   0  0  0  0  0  0  0  0  0  0  0  0
    3.6594   -1.5159   -0.0553 H   0  0  0  0  0  0  0  0  0  0  0  0
    5.2655   -2.1624    2.4760 H   0  0  0  0  0  0  0  0  0  0  0  0
    3.5616   -1.9061    2.3822 H   0  0  0  0  0  0  0  0  0  0  0  0
    2.0392   -3.4359    1.1961 H   0  0  0  0  0  0  0  0  0  0  0  0
    2.5511   -4.9547    0.5335 H   0  0  0  0  0  0  0  0  0  0  0  0
    2.9372   -3.4764   -0.2606 H   0  0  0  0  0  0  0  0  0  0  0  0
    4.7744   -4.1454    3.6011 H   0  0  0  0  0  0  0  0  0  0  0  0
    2.8126   -4.5794    4.7192 H   0  0  0  0  0  0  0  0  0  0  0  0
    2.3665   -3.3591    3.6229 H   0  0  0  0  0  0  0  0  0  0  0  0
    0.7025   -5.2105    3.8093 H   0  0  0  0  0  0  0  0  0  0  0  0
    1.2200   -5.0012    2.1406 H   0  0  0  0  0  0  0  0  0  0  0  0
    2.9550   -6.7213    5.1406 H   0  0  0  0  0  0  0  0  0  0  0  0
    2.4127   -8.3156    4.6890 H   0  0  0  0  0  0  0  0  0  0  0  0
    1.2432   -7.1211    5.1473 H   0  0  0  0  0  0  0  0  0  0  0  0
  1  2  1  0
  1 24  1  0
  1 25  1  0
  1 26  1  0
  2  3  1  0
  2  4  1  0
  2 27  1  1
  3 28  1  0
  4 22  1  0
  4  5  1  0
  4 29  1  6
  5  6  1  0
  5 30  1  0
  5 31  1  0
  6  7  1  0
  6 32  1  0
  6 33  1  0
  7 22  1  0
  7  8  1  0
  7 34  1  6
  8 19  1  0
  8  9  1  0
  8 35  1  1
  9 10  1  0
  9 36  1  0
  9 37  1  0
 10 11  2  0
 10 38  1  0
 11 17  1  0
 11 12  1  0
 12 13  1  0
 12 39  1  0
 12 40  1  0
 13 14  1  0
 13 15  1  0
 13 41  1  1
 14 42  1  0
 15 16  1  0
 15 43  1  0
 15 44  1  0
 16 17  1  0
 16 45  1  0
 16 46  1  0
 17 18  1  6
 17 19  1  0
 18 47  1  0
 18 48  1  0
 18 49  1  0
 19 20  1  0
 19 50  1  1
 20 21  1  0
 20 51  1  0
 20 52  1  0
 21 22  1  0
 21 53  1  0
 21 54  1  0
 22 23  1  1
 23 55  1  0
 23 56  1  0
 23 57  1  0
M  END
>  <i_m_ct_stereo_status>  (106) 
1

>  <s_m_source_file>  (106) 
/var/tmp/pbs.5076255.sched01/tmpgskxq70o/44i51uky9l.sdf

>  <i_m_source_file_index>  (106) 
14

>  <i_lp_mmshare_version>  (106) 
48012

>  <i_f3d_flags>  (106) 
0

>  <s_epik_input>  (106) 
W0NIM11bQ0BIXShbT0hdKVtDQEhdKFtDSDJdW0NIMl0xKVtDQF0oW0NIM10pKFtDSDJdW0NIMl1bQ0BASF0yMylbQ0BIXTFbQ0BIXTJbQ0gyXVtDSF09QyhbQ0BAXTM0W0NIM10pW0NIMl1bQ0BASF0oW09IXSlbQ0gyXVtDSDJdNA==

>  <s_epik_cmdline>  (106) 
J2VwaWtfcHl0aG9uJywgJy1waHQnLCAnMi4wJywgJy1waCcsICc3LjAnLCAnLXRuJywgJzgnLCAnLW1hJywgJzIwMCcsICctaW1hZScsICc8aW5maWxlLm1hZT4nLCAnLW9tYWUnLCAnPG91dGZpbGUubWFlPic=

>  <r_lp_tautomer_probability>  (106) 
1

>  <r_epik_Ionization_Penalty>  (106) 
2.18359e-06

>  <r_epik_Ionization_Penalty_Charging>  (106) 
0

>  <r_epik_Ionization_Penalty_Neutral>  (106) 
2.18359e-06

>  <r_epik_State_Penalty>  (106) 
-0

>  <r_epik_Charging_Adjusted_Penalty>  (106) 
0

>  <i_epik_Tot_Q>  (106) 
0

>  <i_epik_Tot_abs_Q>  (106) 
0

>  <s_lp_Force_Field>  (106) 
OPLS3e

>  <r_lp_Energy>  (106) 
41.3188

>  <b_lp_Chiralities_Consistent>  (106) 
1

>  <s_lp_Variant>  (106) 
36:0-1

>  <s_i_glide_gridfile>  (106) 
pfpi4k_grid

>  <i_i_glide_lignum>  (106) 
14

>  <i_i_glide_rotatable_bonds>  (106) 
3

>  <r_i_docking_score>  (106) 
-3.60428

>  <r_i_glide_ligand_efficiency>  (106) 
-0.156708

>  <r_i_glide_ligand_efficiency_sa>  (106) 
-0.445657

>  <r_i_glide_ligand_efficiency_ln>  (106) 
-0.871549

>  <r_i_glide_gscore>  (106) 
-3.60428

>  <r_i_glide_lipo>  (106) 
-0.498526

>  <r_i_glide_hbond>  (106) 
-0.183923

>  <r_i_glide_metal>  (106) 
-0

>  <r_i_glide_rewards>  (106) 
-1.23754

>  <r_i_glide_evdw>  (106) 
-25.0005

>  <r_i_glide_ecoul>  (106) 
-4.12055

>  <r_i_glide_erotb>  (106) 
0.183813

>  <r_i_glide_esite>  (106) 
0

>  <r_i_glide_emodel>  (106) 
-34.8961

>  <r_i_glide_energy>  (106) 
-29.121

>  <r_i_glide_einternal>  (106) 
0.411074

>  <r_i_glide_intrahb_reward>  (106) 
-0

>  <i_i_glide_confnum>  (106) 
1

>  <i_i_glide_posenum>  (106) 
36

>  <r_i_glide_eff_state_penalty>  (106) 
0

>  <ligand_id>  (106) 
36

>  <original_smiles>  (106) 
CC(O)C1CCC2C3CC=C4CC(O)CCC4(C)C3CCC12C

>  <smiles>  (106) 
[H]OC1([H])C([H])([H])C2=C([H])C([H])([H])C3([H])C([H])(C([H])([H])C([H])([H])C4(C([H])([H])[H])C([H])(C([H])(O[H])C([H])([H])[H])C([H])([H])C([H])([H])C34[H])C2(C([H])([H])[H])C([H])([H])C1([H])[H]

$$$$
37:0:0
     RDKit          3D

 44 48  0  0  1  0  0  0  0  0999 V2000
    3.7553   -0.6619   -3.9345 C   0  0  0  0  0  0  0  0  0  0  0  0
    3.6594   -2.0332   -3.2457 C   0  0  0  0  0  0  0  0  0  0  0  0
    2.6231   -2.9460   -3.8964 C   0  0  0  0  0  0  0  0  0  0  0  0
    4.9022   -2.6695   -3.3131 O   0  0  0  0  0  0  0  0  0  0  0  0
    5.2643   -2.9468   -1.9744 C   0  0  1  0  0  0  0  0  0  0  0  0
    6.7849   -2.8103   -1.8057 C   0  0  0  0  0  0  0  0  0  0  0  0
    7.4036   -3.0539   -0.4065 C   0  0  2  0  0  0  0  0  0  0  0  0
    6.8945   -4.2408    0.3944 C   0  0  0  0  0  0  0  0  0  0  0  0
    6.0600   -4.2419    1.4500 C   0  0  0  0  0  0  0  0  0  0  0  0
    5.2455   -3.0848    2.0526 C   0  0  2  0  0  0  0  0  0  0  0  0
    3.8257   -3.4059    1.9192 N   0  0  0  0  0  0  0  0  0  0  0  0
    3.0143   -2.7602    2.9587 C   0  0  0  0  0  0  0  0  0  0  0  0
    3.0498   -1.2270    2.7084 C   0  0  0  0  0  0  0  0  0  0  0  0
    4.4238   -0.7402    2.1645 C   0  0  0  0  0  0  0  0  0  0  0  0
    5.1759   -1.7763    1.2528 C   0  0  1  0  0  0  0  0  0  0  0  0
    6.5129   -1.1195    0.8447 C   0  0  0  0  0  0  0  0  0  0  0  0
    7.6027   -1.9041    0.3946 O   0  0  0  0  0  0  0  0  0  0  0  0
    4.2805   -2.2191    0.1751 N   0  0  0  0  0  0  0  0  0  0  0  0
    3.4704   -3.2035    0.6339 C   0  0  0  0  0  0  0  0  0  0  0  0
    2.5729   -3.7979    0.0383 O   0  0  0  0  0  0  0  0  0  0  0  0
    4.4923   -1.8815   -1.2149 C   0  0  2  0  0  0  0  0  0  0  0  0
    3.3164   -1.8231   -1.9164 O   0  0  0  0  0  0  0  0  0  0  0  0
    4.5067   -0.0456   -3.4408 H   0  0  0  0  0  0  0  0  0  0  0  0
    2.7937   -0.1538   -3.8547 H   0  0  0  0  0  0  0  0  0  0  0  0
    4.0149   -0.7761   -4.9888 H   0  0  0  0  0  0  0  0  0  0  0  0
    2.5865   -3.9013   -3.3785 H   0  0  0  0  0  0  0  0  0  0  0  0
    2.9151   -3.1151   -4.9306 H   0  0  0  0  0  0  0  0  0  0  0  0
    1.6329   -2.4898   -3.8635 H   0  0  0  0  0  0  0  0  0  0  0  0
    4.9037   -3.9461   -1.7223 H   0  0  0  0  0  0  0  0  0  0  0  0
    7.2312   -3.5417   -2.4817 H   0  0  0  0  0  0  0  0  0  0  0  0
    7.1217   -1.8562   -2.1905 H   0  0  0  0  0  0  0  0  0  0  0  0
    8.4368   -3.3337   -0.6164 H   0  0  0  0  0  0  0  0  0  0  0  0
    7.3156   -5.1876    0.0943 H   0  0  0  0  0  0  0  0  0  0  0  0
    5.8516   -5.2003    1.9054 H   0  0  0  0  0  0  0  0  0  0  0  0
    5.5603   -2.9363    3.0901 H   0  0  0  0  0  0  0  0  0  0  0  0
    1.9850   -3.1226    2.9462 H   0  0  0  0  0  0  0  0  0  0  0  0
    3.4164   -2.9922    3.9464 H   0  0  0  0  0  0  0  0  0  0  0  0
    2.2761   -0.9589    1.9820 H   0  0  0  0  0  0  0  0  0  0  0  0
    2.7931   -0.6854    3.6197 H   0  0  0  0  0  0  0  0  0  0  0  0
    4.2811    0.2012    1.6329 H   0  0  0  0  0  0  0  0  0  0  0  0
    5.0541   -0.5084    3.0255 H   0  0  0  0  0  0  0  0  0  0  0  0
    6.3581   -0.2761    0.1750 H   0  0  0  0  0  0  0  0  0  0  0  0
    6.9243   -0.6635    1.7433 H   0  0  0  0  0  0  0  0  0  0  0  0
    4.9439   -0.8925   -1.2960 H   0  0  0  0  0  0  0  0  0  0  0  0
  1  2  1  0
  1 23  1  0
  1 24  1  0
  1 25  1  0
  2 22  1  0
  2  3  1  0
  2  4  1  0
  3 26  1  0
  3 27  1  0
  3 28  1  0
  4  5  1  0
  5 21  1  0
  5  6  1  0
  5 29  1  1
  6  7  1  0
  6 30  1  0
  6 31  1  0
  7 17  1  0
  7  8  1  0
  7 32  1  6
  8  9  2  0
  8 33  1  0
  9 10  1  0
  9 34  1  0
 10 15  1  0
 10 11  1  0
 10 35  1  1
 11 19  1  0
 11 12  1  0
 12 13  1  0
 12 36  1  0
 12 37  1  0
 13 14  1  0
 13 38  1  0
 13 39  1  0
 15 14  1  1
 14 40  1  0
 14 41  1  0
 15 16  1  0
 15 18  1  0
 16 17  1  0
 16 42  1  0
 16 43  1  0
 18 19  1  0
 18 21  1  0
 19 20  2  0
 21 22  1  0
 21 44  1  1
M  END
>  <i_m_ct_stereo_status>  (107) 
1

>  <s_m_source_file>  (107) 
/var/tmp/pbs.5076255.sched01/tmpgskxq70o/44i51uky9l.sdf

>  <i_m_source_file_index>  (107) 
15

>  <i_lp_mmshare_version>  (107) 
48012

>  <i_f3d_flags>  (107) 
0

>  <s_epik_input>  (107) 
W0NIXTE9W0NIXVtDQEhdKE9bQ0gyXTIpW0NIMl1bQ0BIXShPQyhPMykoW0NIM10pW0NIM10pW0NAQEhdM040Qyg9TylOKFtDQEBIXTFbQ0BAXTI0NSlbQ0gyXVtDSDJdW0NIMl01

>  <s_epik_cmdline>  (107) 
J2VwaWtfcHl0aG9uJywgJy1waHQnLCAnMi4wJywgJy1waCcsICc3LjAnLCAnLXRuJywgJzgnLCAnLW1hJywgJzIwMCcsICctaW1hZScsICc8aW5maWxlLm1hZT4nLCAnLW9tYWUnLCAnPG91dGZpbGUubWFlPic=

>  <r_lp_tautomer_probability>  (107) 
1

>  <r_epik_Ionization_Penalty>  (107) 
2.98946e-05

>  <r_epik_Ionization_Penalty_Charging>  (107) 
0

>  <r_epik_Ionization_Penalty_Neutral>  (107) 
2.98946e-05

>  <r_epik_State_Penalty>  (107) 
-0

>  <r_epik_Charging_Adjusted_Penalty>  (107) 
0

>  <i_epik_Tot_Q>  (107) 
0

>  <i_epik_Tot_abs_Q>  (107) 
0

>  <s_epik_Chemistry_Notes>  (107) 
This compound contains an acetal/aminal-like group ( X-CH(R)-Y where X, Y are N, S, or O) that may be acid/base labile, releasing an aldehyde.

>  <s_lp_Force_Field>  (107) 
OPLS3e

>  <r_lp_Energy>  (107) 
47.4099

>  <b_lp_Chiralities_Consistent>  (107) 
1

>  <s_lp_Variant>  (107) 
37:0-1

>  <s_i_glide_gridfile>  (107) 
pfpi4k_grid

>  <i_i_glide_lignum>  (107) 
15

>  <i_i_glide_rotatable_bonds>  (107) 
0

>  <r_i_docking_score>  (107) 
-4.06076

>  <r_i_glide_ligand_efficiency>  (107) 
-0.18458

>  <r_i_glide_ligand_efficiency_sa>  (107) 
-0.5172

>  <r_i_glide_ligand_efficiency_ln>  (107) 
-0.992597

>  <r_i_glide_gscore>  (107) 
-4.06076

>  <r_i_glide_lipo>  (107) 
-0.984092

>  <r_i_glide_hbond>  (107) 
0

>  <r_i_glide_metal>  (107) 
-0

>  <r_i_glide_rewards>  (107) 
-1.49604

>  <r_i_glide_evdw>  (107) 
-31.6452

>  <r_i_glide_ecoul>  (107) 
0.349859

>  <r_i_glide_erotb>  (107) 
0

>  <r_i_glide_esite>  (107) 
-0.0508398

>  <r_i_glide_emodel>  (107) 
-38.7867

>  <r_i_glide_energy>  (107) 
-31.2954

>  <r_i_glide_einternal>  (107) 
0

>  <r_i_glide_intrahb_reward>  (107) 
-0

>  <i_i_glide_confnum>  (107) 
1

>  <i_i_glide_posenum>  (107) 
11

>  <r_i_glide_eff_state_penalty>  (107) 
0

>  <ligand_id>  (107) 
37

>  <original_smiles>  (107) 
CC1(C)OC2CC3C=CC4N5CCCC4(CO3)N(C5=O)C2O1

>  <smiles>  (107) 
[H]C1=C([H])C2([H])N3C(=O)N4C5([H])OC(C([H])([H])[H])(C([H])([H])[H])OC5([H])C([H])([H])C1([H])OC([H])([H])C42C([H])([H])C([H])([H])C3([H])[H]

$$$$
37:0:1
     RDKit          3D

 44 48  0  0  1  0  0  0  0  0999 V2000
    4.6549   -7.7709    1.3573 C   0  0  0  0  0  0  0  0  0  0  0  0
    3.6557   -6.6012    1.4116 C   0  0  0  0  0  0  0  0  0  0  0  0
    2.2315   -7.0538    1.7582 C   0  0  0  0  0  0  0  0  0  0  0  0
    4.0709   -5.6862    2.3849 O   0  0  0  0  0  0  0  0  0  0  0  0
    4.2334   -4.4553    1.7094 C   0  0  1  0  0  0  0  0  0  0  0  0
    5.4166   -3.6709    2.3042 C   0  0  0  0  0  0  0  0  0  0  0  0
    5.7570   -2.2788    1.7048 C   0  0  2  0  0  0  0  0  0  0  0  0
    4.6079   -1.3421    1.3926 C   0  0  0  0  0  0  0  0  0  0  0  0
    4.0906   -1.0317    0.1902 C   0  0  0  0  0  0  0  0  0  0  0  0
    4.3875   -1.6532   -1.1851 C   0  0  2  0  0  0  0  0  0  0  0  0
    3.1590   -2.2685   -1.6812 N   0  0  0  0  0  0  0  0  0  0  0  0
    3.1044   -2.2969   -3.1457 C   0  0  0  0  0  0  0  0  0  0  0  0
    4.2045   -3.2771   -3.6263 C   0  0  0  0  0  0  0  0  0  0  0  0
    5.4713   -3.2711   -2.7217 C   0  0  0  0  0  0  0  0  0  0  0  0
    5.2143   -2.9472   -1.2106 C   0  0  1  0  0  0  0  0  0  0  0  0
    6.5957   -2.9298   -0.5151 C   0  0  0  0  0  0  0  0  0  0  0  0
    6.7605   -2.2309    0.7028 O   0  0  0  0  0  0  0  0  0  0  0  0
    4.2035   -3.8747   -0.6858 N   0  0  0  0  0  0  0  0  0  0  0  0
    2.9694   -3.4268   -1.0149 C   0  0  0  0  0  0  0  0  0  0  0  0
    1.8850   -3.9690   -0.7858 O   0  0  0  0  0  0  0  0  0  0  0  0
    4.4970   -4.9050    0.2849 C   0  0  2  0  0  0  0  0  0  0  0  0
    3.6525   -5.9828    0.1657 O   0  0  0  0  0  0  0  0  0  0  0  0
    5.6557   -7.4094    1.1199 H   0  0  0  0  0  0  0  0  0  0  0  0
    4.3484   -8.4675    0.5745 H   0  0  0  0  0  0  0  0  0  0  0  0
    4.6824   -8.2973    2.3131 H   0  0  0  0  0  0  0  0  0  0  0  0
    1.5654   -6.1924    1.8024 H   0  0  0  0  0  0  0  0  0  0  0  0
    2.2347   -7.5444    2.7359 H   0  0  0  0  0  0  0  0  0  0  0  0
    1.8659   -7.7598    1.0108 H   0  0  0  0  0  0  0  0  0  0  0  0
    3.2929   -3.9043    1.7741 H   0  0  0  0  0  0  0  0  0  0  0  0
    5.1611   -3.5058    3.3532 H   0  0  0  0  0  0  0  0  0  0  0  0
    6.3092   -4.2948    2.3329 H   0  0  0  0  0  0  0  0  0  0  0  0
    6.2583   -1.7553    2.5180 H   0  0  0  0  0  0  0  0  0  0  0  0
    4.2147   -0.8224    2.2552 H   0  0  0  0  0  0  0  0  0  0  0  0
    3.2898   -0.3063    0.1727 H   0  0  0  0  0  0  0  0  0  0  0  0
    4.7798   -0.8748   -1.8471 H   0  0  0  0  0  0  0  0  0  0  0  0
    2.1235   -2.6188   -3.5031 H   0  0  0  0  0  0  0  0  0  0  0  0
    3.2780   -1.3014   -3.5586 H   0  0  0  0  0  0  0  0  0  0  0  0
    3.7862   -4.2797   -3.6240 H   0  0  0  0  0  0  0  0  0  0  0  0
    4.4728   -3.0933   -4.6646 H   0  0  0  0  0  0  0  0  0  0  0  0
    5.9762   -4.2317   -2.8160 H   0  0  0  0  0  0  0  0  0  0  0  0
    6.1548   -2.5262   -3.1171 H   0  0  0  0  0  0  0  0  0  0  0  0
    7.0345   -3.9234   -0.4501 H   0  0  0  0  0  0  0  0  0  0  0  0
    7.2772   -2.3883   -1.1697 H   0  0  0  0  0  0  0  0  0  0  0  0
    5.5084   -5.2822    0.1440 H   0  0  0  0  0  0  0  0  0  0  0  0
  1  2  1  0
  1 23  1  0
  1 24  1  0
  1 25  1  0
  2 22  1  0
  2  3  1  0
  2  4  1  0
  3 26  1  0
  3 27  1  0
  3 28  1  0
  4  5  1  0
  5 21  1  0
  5  6  1  0
  5 29  1  6
  6  7  1  0
  6 30  1  0
  6 31  1  0
  7 17  1  0
  7  8  1  0
  7 32  1  1
  8  9  2  0
  8 33  1  0
  9 10  1  0
  9 34  1  0
 10 15  1  0
 10 11  1  0
 10 35  1  6
 11 19  1  0
 11 12  1  0
 12 13  1  0
 12 36  1  0
 12 37  1  0
 13 14  1  0
 13 38  1  0
 13 39  1  0
 15 14  1  6
 14 40  1  0
 14 41  1  0
 15 16  1  0
 15 18  1  0
 16 17  1  0
 16 42  1  0
 16 43  1  0
 18 19  1  0
 18 21  1  0
 19 20  2  0
 21 22  1  0
 21 44  1  1
M  END
>  <i_m_ct_stereo_status>  (108) 
1

>  <s_m_source_file>  (108) 
/var/tmp/pbs.5076255.sched01/tmpgskxq70o/44i51uky9l.sdf

>  <i_m_source_file_index>  (108) 
15

>  <i_lp_mmshare_version>  (108) 
48012

>  <i_f3d_flags>  (108) 
0

>  <s_epik_input>  (108) 
W0NIXTE9W0NIXVtDQEhdKE9bQ0gyXTIpW0NIMl1bQ0BIXShPQyhPMykoW0NIM10pW0NIM10pW0NAQEhdM040Qyg9TylOKFtDQEBIXTFbQ0BAXTI0NSlbQ0gyXVtDSDJdW0NIMl01

>  <s_epik_cmdline>  (108) 
J2VwaWtfcHl0aG9uJywgJy1waHQnLCAnMi4wJywgJy1waCcsICc3LjAnLCAnLXRuJywgJzgnLCAnLW1hJywgJzIwMCcsICctaW1hZScsICc8aW5maWxlLm1hZT4nLCAnLW9tYWUnLCAnPG91dGZpbGUubWFlPic=

>  <r_lp_tautomer_probability>  (108) 
1

>  <r_epik_Ionization_Penalty>  (108) 
2.98946e-05

>  <r_epik_Ionization_Penalty_Charging>  (108) 
0

>  <r_epik_Ionization_Penalty_Neutral>  (108) 
2.98946e-05

>  <r_epik_State_Penalty>  (108) 
-0

>  <r_epik_Charging_Adjusted_Penalty>  (108) 
0

>  <i_epik_Tot_Q>  (108) 
0

>  <i_epik_Tot_abs_Q>  (108) 
0

>  <s_epik_Chemistry_Notes>  (108) 
This compound contains an acetal/aminal-like group ( X-CH(R)-Y where X, Y are N, S, or O) that may be acid/base labile, releasing an aldehyde.

>  <s_lp_Force_Field>  (108) 
OPLS3e

>  <r_lp_Energy>  (108) 
47.4099

>  <b_lp_Chiralities_Consistent>  (108) 
1

>  <s_lp_Variant>  (108) 
37:0-1

>  <s_i_glide_gridfile>  (108) 
pfpi4k_grid

>  <i_i_glide_lignum>  (108) 
15

>  <i_i_glide_rotatable_bonds>  (108) 
0

>  <r_i_docking_score>  (108) 
-3.75751

>  <r_i_glide_ligand_efficiency>  (108) 
-0.170796

>  <r_i_glide_ligand_efficiency_sa>  (108) 
-0.478577

>  <r_i_glide_ligand_efficiency_ln>  (108) 
-0.918473

>  <r_i_glide_gscore>  (108) 
-3.75751

>  <r_i_glide_lipo>  (108) 
-0.794808

>  <r_i_glide_hbond>  (108) 
-0.0062572

>  <r_i_glide_metal>  (108) 
-0

>  <r_i_glide_rewards>  (108) 
-1.54043

>  <r_i_glide_evdw>  (108) 
-28.3766

>  <r_i_glide_ecoul>  (108) 
0.541582

>  <r_i_glide_erotb>  (108) 
0

>  <r_i_glide_esite>  (108) 
-0.0784249

>  <r_i_glide_emodel>  (108) 
-34.7684

>  <r_i_glide_energy>  (108) 
-27.835

>  <r_i_glide_einternal>  (108) 
0

>  <r_i_glide_intrahb_reward>  (108) 
-0

>  <i_i_glide_confnum>  (108) 
2

>  <i_i_glide_posenum>  (108) 
14

>  <r_i_glide_eff_state_penalty>  (108) 
0

>  <ligand_id>  (108) 
37

>  <original_smiles>  (108) 
CC1(C)OC2CC3C=CC4N5CCCC4(CO3)N(C5=O)C2O1

>  <smiles>  (108) 
[H]C1=C([H])C2([H])N3C(=O)N4C5([H])OC(C([H])([H])[H])(C([H])([H])[H])OC5([H])C([H])([H])C1([H])OC([H])([H])C42C([H])([H])C([H])([H])C3([H])[H]

$$$$
37:0:2
     RDKit          3D

 44 48  0  0  1  0  0  0  0  0999 V2000
    2.3349   -2.5618   -3.7505 C   0  0  0  0  0  0  0  0  0  0  0  0
    3.6182   -3.1360   -3.1628 C   0  0  0  0  0  0  0  0  0  0  0  0
    4.2883   -4.1519   -4.0949 C   0  0  0  0  0  0  0  0  0  0  0  0
    4.5250   -2.1053   -2.9338 O   0  0  0  0  0  0  0  0  0  0  0  0
    4.8152   -2.1854   -1.5604 C   0  0  1  0  0  0  0  0  0  0  0  0
    5.0114   -0.7787   -1.0067 C   0  0  0  0  0  0  0  0  0  0  0  0
    5.3646   -0.5995    0.4868 C   0  0  2  0  0  0  0  0  0  0  0  0
    6.3765   -1.5682    1.0476 C   0  0  0  0  0  0  0  0  0  0  0  0
    6.1560   -2.6497    1.8075 C   0  0  0  0  0  0  0  0  0  0  0  0
    4.8453   -3.2778    2.2888 C   0  0  2  0  0  0  0  0  0  0  0  0
    4.8322   -4.6491    1.8010 N   0  0  0  0  0  0  0  0  0  0  0  0
    3.9995   -5.5296    2.6195 C   0  0  0  0  0  0  0  0  0  0  0  0
    2.5230   -5.0770    2.4489 C   0  0  0  0  0  0  0  0  0  0  0  0
    2.3894   -3.5304    2.3126 C   0  0  0  0  0  0  0  0  0  0  0  0
    3.5735   -2.8299    1.5694 C   0  0  1  0  0  0  0  0  0  0  0  0
    3.2567   -1.3113    1.5391 C   0  0  0  0  0  0  0  0  0  0  0  0
    4.3073   -0.3715    1.4030 O   0  0  0  0  0  0  0  0  0  0  0  0
    3.8081   -3.4951    0.2798 N   0  0  0  0  0  0  0  0  0  0  0  0
    4.5717   -4.6013    0.4825 C   0  0  0  0  0  0  0  0  0  0  0  0
    4.9626   -5.4267   -0.3389 O   0  0  0  0  0  0  0  0  0  0  0  0
    3.5728   -2.8468   -0.9922 C   0  0  2  0  0  0  0  0  0  0  0  0
    3.2759   -3.7443   -1.9673 O   0  0  0  0  0  0  0  0  0  0  0  0
    1.8870   -1.8602   -3.0486 H   0  0  0  0  0  0  0  0  0  0  0  0
    1.6262   -3.3719   -3.9212 H   0  0  0  0  0  0  0  0  0  0  0  0
    2.5512   -2.0554   -4.6879 H   0  0  0  0  0  0  0  0  0  0  0  0
    5.1894   -4.5468   -3.6344 H   0  0  0  0  0  0  0  0  0  0  0  0
    4.5466   -3.6980   -5.0481 H   0  0  0  0  0  0  0  0  0  0  0  0
    3.6047   -4.9695   -4.3260 H   0  0  0  0  0  0  0  0  0  0  0  0
    5.6917   -2.8281   -1.4405 H   0  0  0  0  0  0  0  0  0  0  0  0
    5.8157   -0.3544   -1.5991 H   0  0  0  0  0  0  0  0  0  0  0  0
    4.1694   -0.1615   -1.2676 H   0  0  0  0  0  0  0  0  0  0  0  0
    5.8919    0.3502    0.5261 H   0  0  0  0  0  0  0  0  0  0  0  0
    7.3986   -1.3197    0.8267 H   0  0  0  0  0  0  0  0  0  0  0  0
    7.0142   -3.2388    2.0622 H   0  0  0  0  0  0  0  0  0  0  0  0
    4.7667   -3.2024    3.3780 H   0  0  0  0  0  0  0  0  0  0  0  0
    4.1173   -6.5770    2.3318 H   0  0  0  0  0  0  0  0  0  0  0  0
    4.2945   -5.4671    3.6715 H   0  0  0  0  0  0  0  0  0  0  0  0
    2.1085   -5.5525    1.5566 H   0  0  0  0  0  0  0  0  0  0  0  0
    1.9211   -5.4349    3.2851 H   0  0  0  0  0  0  0  0  0  0  0  0
    1.4478   -3.2820    1.8188 H   0  0  0  0  0  0  0  0  0  0  0  0
    2.3076   -3.1184    3.3148 H   0  0  0  0  0  0  0  0  0  0  0  0
    2.4336   -1.0745    0.8678 H   0  0  0  0  0  0  0  0  0  0  0  0
    2.8702   -1.0525    2.5254 H   0  0  0  0  0  0  0  0  0  0  0  0
    2.7263   -2.1643   -0.9249 H   0  0  0  0  0  0  0  0  0  0  0  0
  1  2  1  0
  1 23  1  0
  1 24  1  0
  1 25  1  0
  2 22  1  0
  2  3  1  0
  2  4  1  0
  3 26  1  0
  3 27  1  0
  3 28  1  0
  4  5  1  0
  5 21  1  0
  5  6  1  0
  5 29  1  6
  6  7  1  0
  6 30  1  0
  6 31  1  0
  7 17  1  0
  7  8  1  0
  7 32  1  6
  8  9  2  0
  8 33  1  0
  9 10  1  0
  9 34  1  0
 10 15  1  0
 10 11  1  0
 10 35  1  1
 11 19  1  0
 11 12  1  0
 12 13  1  0
 12 36  1  0
 12 37  1  0
 13 14  1  0
 13 38  1  0
 13 39  1  0
 15 14  1  1
 14 40  1  0
 14 41  1  0
 15 16  1  0
 15 18  1  0
 16 17  1  0
 16 42  1  0
 16 43  1  0
 18 19  1  0
 18 21  1  0
 19 20  2  0
 21 22  1  0
 21 44  1  1
M  END
>  <i_m_ct_stereo_status>  (109) 
1

>  <s_m_source_file>  (109) 
/var/tmp/pbs.5076255.sched01/tmpgskxq70o/44i51uky9l.sdf

>  <i_m_source_file_index>  (109) 
15

>  <i_lp_mmshare_version>  (109) 
48012

>  <i_f3d_flags>  (109) 
0

>  <s_epik_input>  (109) 
W0NIXTE9W0NIXVtDQEhdKE9bQ0gyXTIpW0NIMl1bQ0BIXShPQyhPMykoW0NIM10pW0NIM10pW0NAQEhdM040Qyg9TylOKFtDQEBIXTFbQ0BAXTI0NSlbQ0gyXVtDSDJdW0NIMl01

>  <s_epik_cmdline>  (109) 
J2VwaWtfcHl0aG9uJywgJy1waHQnLCAnMi4wJywgJy1waCcsICc3LjAnLCAnLXRuJywgJzgnLCAnLW1hJywgJzIwMCcsICctaW1hZScsICc8aW5maWxlLm1hZT4nLCAnLW9tYWUnLCAnPG91dGZpbGUubWFlPic=

>  <r_lp_tautomer_probability>  (109) 
1

>  <r_epik_Ionization_Penalty>  (109) 
2.98946e-05

>  <r_epik_Ionization_Penalty_Charging>  (109) 
0

>  <r_epik_Ionization_Penalty_Neutral>  (109) 
2.98946e-05

>  <r_epik_State_Penalty>  (109) 
-0

>  <r_epik_Charging_Adjusted_Penalty>  (109) 
0

>  <i_epik_Tot_Q>  (109) 
0

>  <i_epik_Tot_abs_Q>  (109) 
0

>  <s_epik_Chemistry_Notes>  (109) 
This compound contains an acetal/aminal-like group ( X-CH(R)-Y where X, Y are N, S, or O) that may be acid/base labile, releasing an aldehyde.

>  <s_lp_Force_Field>  (109) 
OPLS3e

>  <r_lp_Energy>  (109) 
47.4099

>  <b_lp_Chiralities_Consistent>  (109) 
1

>  <s_lp_Variant>  (109) 
37:0-1

>  <s_i_glide_gridfile>  (109) 
pfpi4k_grid

>  <i_i_glide_lignum>  (109) 
15

>  <i_i_glide_rotatable_bonds>  (109) 
0

>  <r_i_docking_score>  (109) 
-2.8091

>  <r_i_glide_ligand_efficiency>  (109) 
-0.127687

>  <r_i_glide_ligand_efficiency_sa>  (109) 
-0.357783

>  <r_i_glide_ligand_efficiency_ln>  (109) 
-0.686648

>  <r_i_glide_gscore>  (109) 
-2.8091

>  <r_i_glide_lipo>  (109) 
-0.598776

>  <r_i_glide_hbond>  (109) 
0

>  <r_i_glide_metal>  (109) 
-0

>  <r_i_glide_rewards>  (109) 
-1.52417

>  <r_i_glide_evdw>  (109) 
-14.4958

>  <r_i_glide_ecoul>  (109) 
0.378111

>  <r_i_glide_erotb>  (109) 
0

>  <r_i_glide_esite>  (109) 
-0.0180821

>  <r_i_glide_emodel>  (109) 
-19.0723

>  <r_i_glide_energy>  (109) 
-14.1177

>  <r_i_glide_einternal>  (109) 
0

>  <r_i_glide_intrahb_reward>  (109) 
-0

>  <i_i_glide_confnum>  (109) 
2

>  <i_i_glide_posenum>  (109) 
37

>  <r_i_glide_eff_state_penalty>  (109) 
0

>  <ligand_id>  (109) 
37

>  <original_smiles>  (109) 
CC1(C)OC2CC3C=CC4N5CCCC4(CO3)N(C5=O)C2O1

>  <smiles>  (109) 
[H]C1=C([H])C2([H])N3C(=O)N4C5([H])OC(C([H])([H])[H])(C([H])([H])[H])OC5([H])C([H])([H])C1([H])OC([H])([H])C42C([H])([H])C([H])([H])C3([H])[H]

$$$$
38:0:0
     RDKit          3D

 52 57  0  0  1  0  0  0  0  0999 V2000
    4.2775    2.2548    5.0810 C   0  0  0  0  0  0  0  0  0  0  0  0
    3.1471    1.4349    5.3465 O   0  0  0  0  0  0  0  0  0  0  0  0
    2.8494    0.3450    4.4644 C   0  0  1  0  0  0  0  0  0  0  0  0
    3.8908   -0.8058    4.7527 C   0  0  0  0  0  0  0  0  0  0  0  0
    3.7760   -1.4688    6.1754 C   0  0  0  0  0  0  0  0  0  0  0  0
    2.3260   -1.6954    6.6545 C   0  0  0  0  0  0  0  0  0  0  0  0
    1.9386   -2.7208    7.2053 O   0  0  0  0  0  0  0  0  0  0  0  0
    1.4368   -0.4994    6.3803 C   0  0  2  0  0  0  0  0  0  0  0  0
    0.0316   -0.5295    6.6911 O   0  0  0  0  0  0  0  0  0  0  0  0
   -0.4397    0.5017    5.9008 C   0  0  0  0  0  0  0  0  0  0  0  0
   -1.6220    1.2615    5.9506 C   0  0  0  0  0  0  0  0  0  0  0  0
   -2.5737    0.9673    6.8784 O   0  0  0  0  0  0  0  0  0  0  0  0
   -1.8221    2.3303    5.0263 C   0  0  0  0  0  0  0  0  0  0  0  0
   -0.8437    2.6739    4.0550 C   0  0  0  0  0  0  0  0  0  0  0  0
    0.3407    1.9103    3.9696 C   0  0  0  0  0  0  0  0  0  0  0  0
    0.4268    0.8568    4.8835 C   0  0  0  0  0  0  0  0  0  0  0  0
    1.4834   -0.1709    4.8926 C   0  0  1  0  0  0  0  0  0  0  0  0
    1.0266   -1.3386    3.9606 C   0  0  0  0  0  0  0  0  0  0  0  0
    0.8591   -0.8567    2.5173 C   0  0  0  0  0  0  0  0  0  0  0  0
    2.0447   -0.1124    2.0272 N   0  0  2  0  0  0  0  0  0  0  0  0
    3.0127   -0.9927    1.3187 C   0  0  0  0  0  0  0  0  0  0  0  0
    4.0714   -0.2545    0.5219 C   0  0  0  0  0  0  0  0  0  0  0  0
    4.6380   -0.9025   -0.7278 C   0  0  0  0  0  0  0  0  0  0  0  0
    5.4934   -0.7736    0.5005 C   0  0  0  0  0  0  0  0  0  0  0  0
    2.5898    0.8948    3.0073 C   0  0  1  0  0  0  0  0  0  0  0  0
    1.5771    2.0936    3.0720 C   0  0  0  0  0  0  0  0  0  0  0  0
    4.3013    3.0597    5.8135 H   0  0  0  0  0  0  0  0  0  0  0  0
    4.2182    2.7412    4.1092 H   0  0  0  0  0  0  0  0  0  0  0  0
    5.2216    1.7161    5.1584 H   0  0  0  0  0  0  0  0  0  0  0  0
    3.7904   -1.6200    4.0441 H   0  0  0  0  0  0  0  0  0  0  0  0
    4.9073   -0.4461    4.6068 H   0  0  0  0  0  0  0  0  0  0  0  0
    4.3197   -2.4142    6.2120 H   0  0  0  0  0  0  0  0  0  0  0  0
    4.2477   -0.8190    6.9128 H   0  0  0  0  0  0  0  0  0  0  0  0
    1.8527    0.3196    6.9667 H   0  0  0  0  0  0  0  0  0  0  0  0
   -3.2551    1.6224    6.8954 H   0  0  0  0  0  0  0  0  0  0  0  0
   -2.7367    2.8958    5.0528 H   0  0  0  0  0  0  0  0  0  0  0  0
   -0.9964    3.5009    3.3701 H   0  0  0  0  0  0  0  0  0  0  0  0
    1.7260   -2.1758    3.9724 H   0  0  0  0  0  0  0  0  0  0  0  0
    0.0846   -1.7621    4.3042 H   0  0  0  0  0  0  0  0  0  0  0  0
    0.6440   -1.7016    1.8685 H   0  0  0  0  0  0  0  0  0  0  0  0
   -0.0171   -0.2146    2.4390 H   0  0  0  0  0  0  0  0  0  0  0  0
    3.4865   -1.6970    1.9922 H   0  0  0  0  0  0  0  0  0  0  0  0
    2.4616   -1.6045    0.6063 H   0  0  0  0  0  0  0  0  0  0  0  0
    3.9591    0.8295    0.4833 H   0  0  0  0  0  0  0  0  0  0  0  0
    4.2838   -1.8956   -0.9968 H   0  0  0  0  0  0  0  0  0  0  0  0
    4.8683   -0.2537   -1.5694 H   0  0  0  0  0  0  0  0  0  0  0  0
    6.2869   -0.0312    0.4803 H   0  0  0  0  0  0  0  0  0  0  0  0
    5.7138   -1.6834    1.0575 H   0  0  0  0  0  0  0  0  0  0  0  0
    3.5202    1.2765    2.5972 H   0  0  0  0  0  0  0  0  0  0  0  0
    1.2523    2.3798    2.0709 H   0  0  0  0  0  0  0  0  0  0  0  0
    2.0902    2.9697    3.4547 H   0  0  0  0  0  0  0  0  0  0  0  0
    1.6677    0.4418    1.2628 H   0  0  0  0  0  0  0  0  0  0  0  0
  1  2  1  0
  1 27  1  0
  1 28  1  0
  1 29  1  0
  3  2  1  1
  3 17  1  0
  3 25  1  0
  3  4  1  0
  4  5  1  0
  4 30  1  0
  4 31  1  0
  5  6  1  0
  5 32  1  0
  5 33  1  0
  6  7  2  0
  6  8  1  0
  8 17  1  0
  8  9  1  0
  8 34  1  1
  9 10  1  0
 10 16  2  0
 10 11  1  0
 11 12  1  0
 11 13  2  0
 12 35  1  0
 13 14  1  0
 13 36  1  0
 14 15  2  0
 14 37  1  0
 15 26  1  0
 15 16  1  0
 16 17  1  0
 17 18  1  6
 18 19  1  0
 18 38  1  0
 18 39  1  0
 19 20  1  0
 19 40  1  0
 19 41  1  0
 20 21  1  0
 20 25  1  0
 20 52  1  6
 21 22  1  0
 21 42  1  0
 21 43  1  0
 22 24  1  0
 22 23  1  0
 22 44  1  0
 23 24  1  0
 23 45  1  0
 23 46  1  0
 24 47  1  0
 24 48  1  0
 25 26  1  0
 25 49  1  6
 26 50  1  0
 26 51  1  0
M  CHG  1  20   1
M  END
>  <i_m_ct_stereo_status>  (110) 
1

>  <s_m_source_file>  (110) 
/var/tmp/pbs.5076255.sched01/tmpgskxq70o/44i51uky9l.sdf

>  <i_m_source_file_index>  (110) 
16

>  <i_lp_mmshare_version>  (110) 
48012

>  <i_f3d_flags>  (110) 
0

>  <s_epik_input>  (110) 
W0NIMl0xW0NIMl1bQ0hdMVtDSDJdTihbQ0gyXVtDSDJdMilbQ0BIXShbQ0BdMyhbQ0BAXTI0NSlPW0NIM10pW0NIMl1jNmM1YyhjKFtPSF0pW2NIXVtjSF02KU9bQ0BIXTRDKD1PKVtDSDJdW0NIMl0z

>  <s_epik_cmdline>  (110) 
J2VwaWtfcHl0aG9uJywgJy1waHQnLCAnMi4wJywgJy1waCcsICc3LjAnLCAnLXRuJywgJzgnLCAnLW1hJywgJzIwMCcsICctaW1hZScsICc8aW5maWxlLm1hZT4nLCAnLW9tYWUnLCAnPG91dGZpbGUubWFlPic=

>  <r_lp_tautomer_probability>  (110) 
1

>  <r_epik_Ionization_Penalty>  (110) 
0.225593

>  <r_epik_Ionization_Penalty_Charging>  (110) 
0.200004

>  <r_epik_Ionization_Penalty_Neutral>  (110) 
0.0255889

>  <r_epik_State_Penalty>  (110) 
0.309013

>  <r_epik_Charging_Adjusted_Penalty>  (110) 
0.509017

>  <i_epik_Tot_Q>  (110) 
1

>  <i_epik_Tot_abs_Q>  (110) 
1

>  <s_lp_Force_Field>  (110) 
OPLS3e

>  <r_lp_Energy>  (110) 
79.0179

>  <b_lp_Chiralities_Consistent>  (110) 
1

>  <s_lp_Variant>  (110) 
38:0-1

>  <s_i_glide_gridfile>  (110) 
pfpi4k_grid

>  <i_i_glide_lignum>  (110) 
16

>  <i_i_glide_rotatable_bonds>  (110) 
4

>  <r_i_docking_score>  (110) 
-3.06166

>  <r_i_glide_ligand_efficiency>  (110) 
-0.117756

>  <r_i_glide_ligand_efficiency_sa>  (110) 
-0.348852

>  <r_i_glide_ligand_efficiency_ln>  (110) 
-0.719022

>  <r_i_glide_gscore>  (110) 
-3.06166

>  <r_i_glide_lipo>  (110) 
-0.239661

>  <r_i_glide_hbond>  (110) 
0

>  <r_i_glide_metal>  (110) 
-0

>  <r_i_glide_rewards>  (110) 
-0.978849

>  <r_i_glide_evdw>  (110) 
-17.292

>  <r_i_glide_ecoul>  (110) 
-8.20327

>  <r_i_glide_erotb>  (110) 
0.301187

>  <r_i_glide_esite>  (110) 
-0.0492511

>  <r_i_glide_emodel>  (110) 
-30.4109

>  <r_i_glide_energy>  (110) 
-25.4952

>  <r_i_glide_einternal>  (110) 
1.47616

>  <r_i_glide_intrahb_reward>  (110) 
-0

>  <i_i_glide_confnum>  (110) 
5

>  <i_i_glide_posenum>  (110) 
4

>  <r_i_glide_eff_state_penalty>  (110) 
0

>  <ligand_id>  (110) 
38

>  <original_smiles>  (110) 
COC12CCC(=O)C3Oc4c(O)ccc5c4C31CCN(CC1CC1)C2C5

>  <smiles>  (110) 
[H]Oc1c([H])c([H])c2c3c1OC1([H])C(=O)C([H])([H])C([H])([H])C4(OC([H])([H])[H])C31C([H])([H])C([H])([H])[N+]([H])(C([H])([H])C1([H])C([H])([H])C1([H])[H])C4([H])C2([H])[H]

$$$$
38:0:1
     RDKit          3D

 52 57  0  0  1  0  0  0  0  0999 V2000
    3.7852    3.8527    4.6412 C   0  0  0  0  0  0  0  0  0  0  0  0
    2.8518    2.8652    5.0649 O   0  0  0  0  0  0  0  0  0  0  0  0
    2.8923    1.5535    4.4831 C   0  0  1  0  0  0  0  0  0  0  0  0
    4.1940    0.8281    5.0002 C   0  0  0  0  0  0  0  0  0  0  0  0
    4.2196    0.5277    6.5450 C   0  0  0  0  0  0  0  0  0  0  0  0
    2.8735    0.0379    7.1151 C   0  0  0  0  0  0  0  0  0  0  0  0
    2.7661   -0.8920    7.9093 O   0  0  0  0  0  0  0  0  0  0  0  0
    1.7005    0.8448    6.5976 C   0  0  2  0  0  0  0  0  0  0  0  0
    0.3485    0.5051    6.9545 O   0  0  0  0  0  0  0  0  0  0  0  0
   -0.3639    1.1503    5.9593 C   0  0  0  0  0  0  0  0  0  0  0  0
   -1.7096    1.5467    5.8706 C   0  0  0  0  0  0  0  0  0  0  0  0
   -2.5710    1.2339    6.8812 O   0  0  0  0  0  0  0  0  0  0  0  0
   -2.1590    2.2725    4.7245 C   0  0  0  0  0  0  0  0  0  0  0  0
   -1.2797    2.6261    3.6670 C   0  0  0  0  0  0  0  0  0  0  0  0
    0.0687    2.2185    3.7252 C   0  0  0  0  0  0  0  0  0  0  0  0
    0.4079    1.4751    4.8626 C   0  0  0  0  0  0  0  0  0  0  0  0
    1.7043    0.8077    5.0753 C   0  0  1  0  0  0  0  0  0  0  0  0
    1.6073   -0.6254    4.4697 C   0  0  0  0  0  0  0  0  0  0  0  0
    1.3454   -0.5772    2.9630 C   0  0  0  0  0  0  0  0  0  0  0  0
    2.3068    0.3136    2.2593 N   0  0  2  0  0  0  0  0  0  0  0  0
    3.5213   -0.4055    1.7835 C   0  0  0  0  0  0  0  0  0  0  0  0
    3.2346   -1.3468    0.6157 C   0  0  0  0  0  0  0  0  0  0  0  0
    4.3328   -2.2479    0.0962 C   0  0  0  0  0  0  0  0  0  0  0  0
    3.8309   -1.1140   -0.7550 C   0  0  0  0  0  0  0  0  0  0  0  0
    2.5354    1.6400    2.9461 C   0  0  1  0  0  0  0  0  0  0  0  0
    1.2392    2.5090    2.7710 C   0  0  0  0  0  0  0  0  0  0  0  0
    3.5513    4.7902    5.1433 H   0  0  0  0  0  0  0  0  0  0  0  0
    3.7323    4.0499    3.5718 H   0  0  0  0  0  0  0  0  0  0  0  0
    4.8077    3.6099    4.9173 H   0  0  0  0  0  0  0  0  0  0  0  0
    4.3401   -0.1211    4.4969 H   0  0  0  0  0  0  0  0  0  0  0  0
    5.0813    1.3981    4.7403 H   0  0  0  0  0  0  0  0  0  0  0  0
    4.9997   -0.1923    6.7947 H   0  0  0  0  0  0  0  0  0  0  0  0
    4.4683    1.4401    7.0874 H   0  0  0  0  0  0  0  0  0  0  0  0
    1.8547    1.8615    6.9581 H   0  0  0  0  0  0  0  0  0  0  0  0
   -3.3926    1.6922    6.7959 H   0  0  0  0  0  0  0  0  0  0  0  0
   -3.1913    2.5595    4.6355 H   0  0  0  0  0  0  0  0  0  0  0  0
   -1.6319    3.1912    2.8074 H   0  0  0  0  0  0  0  0  0  0  0  0
    2.5053   -1.2139    4.6512 H   0  0  0  0  0  0  0  0  0  0  0  0
    0.8116   -1.1963    4.9407 H   0  0  0  0  0  0  0  0  0  0  0  0
    1.3749   -1.5909    2.5725 H   0  0  0  0  0  0  0  0  0  0  0  0
    0.3317   -0.2342    2.7583 H   0  0  0  0  0  0  0  0  0  0  0  0
    4.2896    0.3043    1.4744 H   0  0  0  0  0  0  0  0  0  0  0  0
    3.9348   -1.0014    2.5947 H   0  0  0  0  0  0  0  0  0  0  0  0
    2.2590   -1.8327    0.6265 H   0  0  0  0  0  0  0  0  0  0  0  0
    5.3243   -2.1534    0.5333 H   0  0  0  0  0  0  0  0  0  0  0  0
    4.0588   -3.2529   -0.2184 H   0  0  0  0  0  0  0  0  0  0  0  0
    3.2037   -1.3707   -1.6089 H   0  0  0  0  0  0  0  0  0  0  0  0
    4.4798   -0.2531   -0.8869 H   0  0  0  0  0  0  0  0  0  0  0  0
    3.3384    2.1364    2.4074 H   0  0  0  0  0  0  0  0  0  0  0  0
    0.8863    2.4428    1.7424 H   0  0  0  0  0  0  0  0  0  0  0  0
    1.4949    3.5580    2.9110 H   0  0  0  0  0  0  0  0  0  0  0  0
    1.8408    0.5668    1.3927 H   0  0  0  0  0  0  0  0  0  0  0  0
  1  2  1  0
  1 27  1  0
  1 28  1  0
  1 29  1  0
  3  2  1  1
  3 17  1  0
  3 25  1  0
  3  4  1  0
  4  5  1  0
  4 30  1  0
  4 31  1  0
  5  6  1  0
  5 32  1  0
  5 33  1  0
  6  7  2  0
  6  8  1  0
  8 17  1  0
  8  9  1  0
  8 34  1  6
  9 10  1  0
 10 16  2  0
 10 11  1  0
 11 12  1  0
 11 13  2  0
 12 35  1  0
 13 14  1  0
 13 36  1  0
 14 15  2  0
 14 37  1  0
 15 26  1  0
 15 16  1  0
 16 17  1  0
 17 18  1  1
 18 19  1  0
 18 38  1  0
 18 39  1  0
 19 20  1  0
 19 40  1  0
 19 41  1  0
 20 21  1  0
 20 25  1  0
 20 52  1  6
 21 22  1  0
 21 42  1  0
 21 43  1  0
 22 24  1  0
 22 23  1  0
 22 44  1  0
 23 24  1  0
 23 45  1  0
 23 46  1  0
 24 47  1  0
 24 48  1  0
 25 26  1  0
 25 49  1  6
 26 50  1  0
 26 51  1  0
M  CHG  1  20   1
M  END
>  <i_m_ct_stereo_status>  (111) 
1

>  <s_m_source_file>  (111) 
/var/tmp/pbs.5076255.sched01/tmpgskxq70o/44i51uky9l.sdf

>  <i_m_source_file_index>  (111) 
16

>  <i_lp_mmshare_version>  (111) 
48012

>  <i_f3d_flags>  (111) 
0

>  <s_epik_input>  (111) 
W0NIMl0xW0NIMl1bQ0hdMVtDSDJdTihbQ0gyXVtDSDJdMilbQ0BIXShbQ0BdMyhbQ0BAXTI0NSlPW0NIM10pW0NIMl1jNmM1YyhjKFtPSF0pW2NIXVtjSF02KU9bQ0BIXTRDKD1PKVtDSDJdW0NIMl0z

>  <s_epik_cmdline>  (111) 
J2VwaWtfcHl0aG9uJywgJy1waHQnLCAnMi4wJywgJy1waCcsICc3LjAnLCAnLXRuJywgJzgnLCAnLW1hJywgJzIwMCcsICctaW1hZScsICc8aW5maWxlLm1hZT4nLCAnLW9tYWUnLCAnPG91dGZpbGUubWFlPic=

>  <r_lp_tautomer_probability>  (111) 
1

>  <r_epik_Ionization_Penalty>  (111) 
0.225593

>  <r_epik_Ionization_Penalty_Charging>  (111) 
0.200004

>  <r_epik_Ionization_Penalty_Neutral>  (111) 
0.0255889

>  <r_epik_State_Penalty>  (111) 
0.309013

>  <r_epik_Charging_Adjusted_Penalty>  (111) 
0.509017

>  <i_epik_Tot_Q>  (111) 
1

>  <i_epik_Tot_abs_Q>  (111) 
1

>  <s_lp_Force_Field>  (111) 
OPLS3e

>  <r_lp_Energy>  (111) 
79.0179

>  <b_lp_Chiralities_Consistent>  (111) 
1

>  <s_lp_Variant>  (111) 
38:0-1

>  <s_i_glide_gridfile>  (111) 
pfpi4k_grid

>  <i_i_glide_lignum>  (111) 
16

>  <i_i_glide_rotatable_bonds>  (111) 
4

>  <r_i_docking_score>  (111) 
-2.47257

>  <r_i_glide_ligand_efficiency>  (111) 
-0.0950989

>  <r_i_glide_ligand_efficiency_sa>  (111) 
-0.28173

>  <r_i_glide_ligand_efficiency_ln>  (111) 
-0.580675

>  <r_i_glide_gscore>  (111) 
-2.47257

>  <r_i_glide_lipo>  (111) 
-0.00382259

>  <r_i_glide_hbond>  (111) 
0

>  <r_i_glide_metal>  (111) 
-0

>  <r_i_glide_rewards>  (111) 
-0.978849

>  <r_i_glide_evdw>  (111) 
-16.4954

>  <r_i_glide_ecoul>  (111) 
-6.32868

>  <r_i_glide_erotb>  (111) 
0.301187

>  <r_i_glide_esite>  (111) 
-0.0170117

>  <r_i_glide_emodel>  (111) 
-26.4929

>  <r_i_glide_energy>  (111) 
-22.8241

>  <r_i_glide_einternal>  (111) 
1.4628

>  <r_i_glide_intrahb_reward>  (111) 
-0

>  <i_i_glide_confnum>  (111) 
2

>  <i_i_glide_posenum>  (111) 
22

>  <r_i_glide_eff_state_penalty>  (111) 
0

>  <ligand_id>  (111) 
38

>  <original_smiles>  (111) 
COC12CCC(=O)C3Oc4c(O)ccc5c4C31CCN(CC1CC1)C2C5

>  <smiles>  (111) 
[H]Oc1c([H])c([H])c2c3c1OC1([H])C(=O)C([H])([H])C([H])([H])C4(OC([H])([H])[H])C31C([H])([H])C([H])([H])[N+]([H])(C([H])([H])C1([H])C([H])([H])C1([H])[H])C4([H])C2([H])[H]

$$$$
38:0:2
     RDKit          3D

 52 57  0  0  1  0  0  0  0  0999 V2000
    4.1688    0.9235    6.4699 C   0  0  0  0  0  0  0  0  0  0  0  0
    2.8155    0.9063    6.0304 O   0  0  0  0  0  0  0  0  0  0  0  0
    2.4528    0.1023    4.8967 C   0  0  1  0  0  0  0  0  0  0  0  0
    2.6363   -1.4157    5.2820 C   0  0  0  0  0  0  0  0  0  0  0  0
    1.6623   -1.9341    6.4074 C   0  0  0  0  0  0  0  0  0  0  0  0
    0.2155   -1.4148    6.2808 C   0  0  0  0  0  0  0  0  0  0  0  0
   -0.7803   -2.1147    6.4543 O   0  0  0  0  0  0  0  0  0  0  0  0
    0.1551    0.0626    5.9567 C   0  0  2  0  0  0  0  0  0  0  0  0
   -1.1034    0.7285    5.7294 O   0  0  0  0  0  0  0  0  0  0  0  0
   -0.6909    1.8595    5.0512 C   0  0  0  0  0  0  0  0  0  0  0  0
   -1.3124    3.1052    4.8179 C   0  0  0  0  0  0  0  0  0  0  0  0
   -2.5807    3.3250    5.2618 O   0  0  0  0  0  0  0  0  0  0  0  0
   -0.6013    4.1264    4.1263 C   0  0  0  0  0  0  0  0  0  0  0  0
    0.7349    3.9495    3.6838 C   0  0  0  0  0  0  0  0  0  0  0  0
    1.3671    2.7042    3.8825 C   0  0  0  0  0  0  0  0  0  0  0  0
    0.5836    1.7408    4.5192 C   0  0  0  0  0  0  0  0  0  0  0  0
    0.9576    0.3282    4.6910 C   0  0  1  0  0  0  0  0  0  0  0  0
    0.4581   -0.4549    3.4337 C   0  0  0  0  0  0  0  0  0  0  0  0
    1.1330    0.0540    2.1513 C   0  0  0  0  0  0  0  0  0  0  0  0
    2.6096    0.1018    2.2989 N   0  0  2  0  0  0  0  0  0  0  0  0
    3.2747   -1.1588    1.8705 C   0  0  0  0  0  0  0  0  0  0  0  0
    3.7388   -1.0858    0.4208 C   0  0  0  0  0  0  0  0  0  0  0  0
    4.5657   -2.2204   -0.1551 C   0  0  0  0  0  0  0  0  0  0  0  0
    5.2033   -0.8790    0.0746 C   0  0  0  0  0  0  0  0  0  0  0  0
    3.0936    0.7081    3.5891 C   0  0  1  0  0  0  0  0  0  0  0  0
    2.7990    2.2491    3.5447 C   0  0  0  0  0  0  0  0  0  0  0  0
    4.2472    1.6359    7.2890 H   0  0  0  0  0  0  0  0  0  0  0  0
    4.8563    1.2550    5.6938 H   0  0  0  0  0  0  0  0  0  0  0  0
    4.5043   -0.0344    6.8649 H   0  0  0  0  0  0  0  0  0  0  0  0
    2.5077   -2.0531    4.4091 H   0  0  0  0  0  0  0  0  0  0  0  0
    3.6593   -1.6084    5.5979 H   0  0  0  0  0  0  0  0  0  0  0  0
    1.6586   -3.0233    6.4591 H   0  0  0  0  0  0  0  0  0  0  0  0
    2.0210   -1.5924    7.3797 H   0  0  0  0  0  0  0  0  0  0  0  0
    0.6084    0.5727    6.8058 H   0  0  0  0  0  0  0  0  0  0  0  0
   -2.9505    2.5476    5.6500 H   0  0  0  0  0  0  0  0  0  0  0  0
   -1.0858    5.0640    3.9254 H   0  0  0  0  0  0  0  0  0  0  0  0
    1.2497    4.7486    3.1664 H   0  0  0  0  0  0  0  0  0  0  0  0
    0.6323   -1.5286    3.5258 H   0  0  0  0  0  0  0  0  0  0  0  0
   -0.6217   -0.3566    3.3246 H   0  0  0  0  0  0  0  0  0  0  0  0
    0.8600   -0.5730    1.3053 H   0  0  0  0  0  0  0  0  0  0  0  0
    0.7567    1.0470    1.8955 H   0  0  0  0  0  0  0  0  0  0  0  0
    4.1330   -1.3918    2.4989 H   0  0  0  0  0  0  0  0  0  0  0  0
    2.5889   -2.0011    1.9524 H   0  0  0  0  0  0  0  0  0  0  0  0
    3.0077   -0.6745   -0.2766 H   0  0  0  0  0  0  0  0  0  0  0  0
    4.8478   -3.0362    0.5072 H   0  0  0  0  0  0  0  0  0  0  0  0
    4.3934   -2.5066   -1.1917 H   0  0  0  0  0  0  0  0  0  0  0  0
    5.4282   -0.2833   -0.8102 H   0  0  0  0  0  0  0  0  0  0  0  0
    5.9104   -0.7809    0.8975 H   0  0  0  0  0  0  0  0  0  0  0  0
    4.1757    0.5787    3.6097 H   0  0  0  0  0  0  0  0  0  0  0  0
    3.0638    2.6606    2.5716 H   0  0  0  0  0  0  0  0  0  0  0  0
    3.4514    2.7430    4.2634 H   0  0  0  0  0  0  0  0  0  0  0  0
    2.9058    0.7689    1.6010 H   0  0  0  0  0  0  0  0  0  0  0  0
  1  2  1  0
  1 27  1  0
  1 28  1  0
  1 29  1  0
  3  2  1  1
  3 17  1  0
  3 25  1  0
  3  4  1  0
  4  5  1  0
  4 30  1  0
  4 31  1  0
  5  6  1  0
  5 32  1  0
  5 33  1  0
  6  7  2  0
  6  8  1  0
  8 17  1  0
  8  9  1  0
  8 34  1  1
  9 10  1  0
 10 16  2  0
 10 11  1  0
 11 12  1  0
 11 13  2  0
 12 35  1  0
 13 14  1  0
 13 36  1  0
 14 15  2  0
 14 37  1  0
 15 26  1  0
 15 16  1  0
 16 17  1  0
 17 18  1  6
 18 19  1  0
 18 38  1  0
 18 39  1  0
 19 20  1  0
 19 40  1  0
 19 41  1  0
 20 21  1  0
 20 25  1  0
 20 52  1  6
 21 22  1  0
 21 42  1  0
 21 43  1  0
 22 24  1  0
 22 23  1  0
 22 44  1  0
 23 24  1  0
 23 45  1  0
 23 46  1  0
 24 47  1  0
 24 48  1  0
 25 26  1  0
 25 49  1  1
 26 50  1  0
 26 51  1  0
M  CHG  1  20   1
M  END
>  <i_m_ct_stereo_status>  (112) 
1

>  <s_m_source_file>  (112) 
/var/tmp/pbs.5076255.sched01/tmpgskxq70o/44i51uky9l.sdf

>  <i_m_source_file_index>  (112) 
16

>  <i_lp_mmshare_version>  (112) 
48012

>  <i_f3d_flags>  (112) 
0

>  <s_epik_input>  (112) 
W0NIMl0xW0NIMl1bQ0hdMVtDSDJdTihbQ0gyXVtDSDJdMilbQ0BIXShbQ0BdMyhbQ0BAXTI0NSlPW0NIM10pW0NIMl1jNmM1YyhjKFtPSF0pW2NIXVtjSF02KU9bQ0BIXTRDKD1PKVtDSDJdW0NIMl0z

>  <s_epik_cmdline>  (112) 
J2VwaWtfcHl0aG9uJywgJy1waHQnLCAnMi4wJywgJy1waCcsICc3LjAnLCAnLXRuJywgJzgnLCAnLW1hJywgJzIwMCcsICctaW1hZScsICc8aW5maWxlLm1hZT4nLCAnLW9tYWUnLCAnPG91dGZpbGUubWFlPic=

>  <r_lp_tautomer_probability>  (112) 
1

>  <r_epik_Ionization_Penalty>  (112) 
0.225593

>  <r_epik_Ionization_Penalty_Charging>  (112) 
0.200004

>  <r_epik_Ionization_Penalty_Neutral>  (112) 
0.0255889

>  <r_epik_State_Penalty>  (112) 
0.309013

>  <r_epik_Charging_Adjusted_Penalty>  (112) 
0.509017

>  <i_epik_Tot_Q>  (112) 
1

>  <i_epik_Tot_abs_Q>  (112) 
1

>  <s_lp_Force_Field>  (112) 
OPLS3e

>  <r_lp_Energy>  (112) 
79.0179

>  <b_lp_Chiralities_Consistent>  (112) 
1

>  <s_lp_Variant>  (112) 
38:0-1

>  <s_i_glide_gridfile>  (112) 
pfpi4k_grid

>  <i_i_glide_lignum>  (112) 
16

>  <i_i_glide_rotatable_bonds>  (112) 
4

>  <r_i_docking_score>  (112) 
-2.46782

>  <r_i_glide_ligand_efficiency>  (112) 
-0.0949162

>  <r_i_glide_ligand_efficiency_sa>  (112) 
-0.281189

>  <r_i_glide_ligand_efficiency_ln>  (112) 
-0.57956

>  <r_i_glide_gscore>  (112) 
-2.46782

>  <r_i_glide_lipo>  (112) 
-0.0424363

>  <r_i_glide_hbond>  (112) 
0

>  <r_i_glide_metal>  (112) 
-0

>  <r_i_glide_rewards>  (112) 
-0.978849

>  <r_i_glide_evdw>  (112) 
-18.4042

>  <r_i_glide_ecoul>  (112) 
-5.30327

>  <r_i_glide_erotb>  (112) 
0.301187

>  <r_i_glide_esite>  (112) 
-0.0320215

>  <r_i_glide_emodel>  (112) 
-27.3174

>  <r_i_glide_energy>  (112) 
-23.7075

>  <r_i_glide_einternal>  (112) 
1.59881

>  <r_i_glide_intrahb_reward>  (112) 
-0

>  <i_i_glide_confnum>  (112) 
2

>  <i_i_glide_posenum>  (112) 
24

>  <r_i_glide_eff_state_penalty>  (112) 
0

>  <ligand_id>  (112) 
38

>  <original_smiles>  (112) 
COC12CCC(=O)C3Oc4c(O)ccc5c4C31CCN(CC1CC1)C2C5

>  <smiles>  (112) 
[H]Oc1c([H])c([H])c2c3c1OC1([H])C(=O)C([H])([H])C([H])([H])C4(OC([H])([H])[H])C31C([H])([H])C([H])([H])[N+]([H])(C([H])([H])C1([H])C([H])([H])C1([H])[H])C4([H])C2([H])[H]

$$$$
38:1:0
     RDKit          3D

 51 56  0  0  1  0  0  0  0  0999 V2000
    4.6424   -7.0259    0.1905 C   0  0  0  0  0  0  0  0  0  0  0  0
    5.0375   -5.7160   -0.2276 O   0  0  0  0  0  0  0  0  0  0  0  0
    4.9695   -4.6184    0.6954 C   0  0  1  0  0  0  0  0  0  0  0  0
    6.2529   -4.6544    1.6081 C   0  0  0  0  0  0  0  0  0  0  0  0
    7.6087   -4.3194    0.8754 C   0  0  0  0  0  0  0  0  0  0  0  0
    7.5056   -3.1744   -0.1566 C   0  0  0  0  0  0  0  0  0  0  0  0
    8.3463   -2.2917   -0.2890 O   0  0  0  0  0  0  0  0  0  0  0  0
    6.2579   -3.2545   -1.0064 C   0  0  2  0  0  0  0  0  0  0  0  0
    5.9434   -2.2491   -1.9861 O   0  0  0  0  0  0  0  0  0  0  0  0
    4.6137   -2.5086   -2.2007 C   0  0  0  0  0  0  0  0  0  0  0  0
    3.7340   -2.2051   -3.2762 C   0  0  0  0  0  0  0  0  0  0  0  0
    4.1843   -1.4534   -4.3189 O   0  0  0  0  0  0  0  0  0  0  0  0
    2.3912   -2.6760   -3.2424 C   0  0  0  0  0  0  0  0  0  0  0  0
    1.8893   -3.4475   -2.1596 C   0  0  0  0  0  0  0  0  0  0  0  0
    2.7216   -3.7181   -1.0534 C   0  0  0  0  0  0  0  0  0  0  0  0
    4.0125   -3.2164   -1.1587 C   0  0  0  0  0  0  0  0  0  0  0  0
    5.0385   -3.3177   -0.1041 C   0  0  1  0  0  0  0  0  0  0  0  0
    4.8826   -2.0803    0.8313 C   0  0  0  0  0  0  0  0  0  0  0  0
    3.5304   -2.1228    1.5570 C   0  0  0  0  0  0  0  0  0  0  0  0
    3.2291   -3.4208    2.1798 N   0  0  0  0  0  0  0  0  0  0  0  0
    3.6019   -3.5650    3.5775 C   0  0  0  0  0  0  0  0  0  0  0  0
    2.9580   -2.5457    4.4920 C   0  0  0  0  0  0  0  0  0  0  0  0
    3.7567   -1.3655    4.9979 C   0  0  0  0  0  0  0  0  0  0  0  0
    3.3622   -2.4664    5.9468 C   0  0  0  0  0  0  0  0  0  0  0  0
    3.5236   -4.5762    1.3110 C   0  0  1  0  0  0  0  0  0  0  0  0
    2.4692   -4.6080    0.1613 C   0  0  0  0  0  0  0  0  0  0  0  0
    4.6320   -7.6783   -0.6811 H   0  0  0  0  0  0  0  0  0  0  0  0
    3.6219   -7.1039    0.5465 H   0  0  0  0  0  0  0  0  0  0  0  0
    5.3010   -7.4291    0.9600 H   0  0  0  0  0  0  0  0  0  0  0  0
    6.1795   -3.9301    2.4169 H   0  0  0  0  0  0  0  0  0  0  0  0
    6.3405   -5.6218    2.1045 H   0  0  0  0  0  0  0  0  0  0  0  0
    8.3936   -4.0871    1.6030 H   0  0  0  0  0  0  0  0  0  0  0  0
    7.9460   -5.2113    0.3447 H   0  0  0  0  0  0  0  0  0  0  0  0
    6.3220   -4.1685   -1.5745 H   0  0  0  0  0  0  0  0  0  0  0  0
    4.9662   -0.9928   -4.0766 H   0  0  0  0  0  0  0  0  0  0  0  0
    1.7346   -2.4245   -4.0571 H   0  0  0  0  0  0  0  0  0  0  0  0
    0.8762   -3.7902   -2.1567 H   0  0  0  0  0  0  0  0  0  0  0  0
    5.6830   -2.0204    1.5663 H   0  0  0  0  0  0  0  0  0  0  0  0
    4.9594   -1.1537    0.2572 H   0  0  0  0  0  0  0  0  0  0  0  0
    3.5083   -1.3195    2.2918 H   0  0  0  0  0  0  0  0  0  0  0  0
    2.7468   -1.8774    0.8363 H   0  0  0  0  0  0  0  0  0  0  0  0
    3.2792   -4.5433    3.9398 H   0  0  0  0  0  0  0  0  0  0  0  0
    4.6786   -3.5116    3.7140 H   0  0  0  0  0  0  0  0  0  0  0  0
    1.8966   -2.3694    4.2928 H   0  0  0  0  0  0  0  0  0  0  0  0
    4.7951   -1.3084    4.6683 H   0  0  0  0  0  0  0  0  0  0  0  0
    3.2356   -0.4118    5.0779 H   0  0  0  0  0  0  0  0  0  0  0  0
    2.5824   -2.2452    6.6751 H   0  0  0  0  0  0  0  0  0  0  0  0
    4.1322   -3.1647    6.2775 H   0  0  0  0  0  0  0  0  0  0  0  0
    3.3666   -5.4690    1.9195 H   0  0  0  0  0  0  0  0  0  0  0  0
    1.5272   -4.3718    0.6258 H   0  0  0  0  0  0  0  0  0  0  0  0
    2.3167   -5.6080   -0.2399 H   0  0  0  0  0  0  0  0  0  0  0  0
  1  2  1  0
  1 27  1  0
  1 28  1  0
  1 29  1  0
  3  2  1  6
  3 17  1  0
  3 25  1  0
  3  4  1  0
  4  5  1  0
  4 30  1  0
  4 31  1  0
  5  6  1  0
  5 32  1  0
  5 33  1  0
  6  7  2  0
  6  8  1  0
  8 17  1  0
  8  9  1  0
  8 34  1  6
  9 10  1  0
 10 16  2  0
 10 11  1  0
 11 12  1  0
 11 13  2  0
 12 35  1  0
 13 14  1  0
 13 36  1  0
 14 15  2  0
 14 37  1  0
 15 26  1  0
 15 16  1  0
 16 17  1  0
 17 18  1  1
 18 19  1  0
 18 38  1  0
 18 39  1  0
 19 20  1  0
 19 40  1  0
 19 41  1  0
 20 21  1  0
 20 25  1  0
 21 22  1  0
 21 42  1  0
 21 43  1  0
 22 24  1  0
 22 23  1  0
 22 44  1  0
 23 24  1  0
 23 45  1  0
 23 46  1  0
 24 47  1  0
 24 48  1  0
 25 26  1  0
 25 49  1  1
 26 50  1  0
 26 51  1  0
M  END
>  <i_m_ct_stereo_status>  (113) 
1

>  <s_m_source_file>  (113) 
/var/tmp/pbs.5076255.sched01/tmpgskxq70o/44i51uky9l.sdf

>  <i_m_source_file_index>  (113) 
17

>  <i_lp_mmshare_version>  (113) 
48012

>  <i_f3d_flags>  (113) 
0

>  <s_epik_input>  (113) 
W0NIMl0xW0NIMl1bQ0hdMVtDSDJdTihbQ0gyXVtDSDJdMilbQ0BIXShbQ0BdMyhbQ0BAXTI0NSlPW0NIM10pW0NIMl1jNmM1YyhjKFtPSF0pW2NIXVtjSF02KU9bQ0BIXTRDKD1PKVtDSDJdW0NIMl0z

>  <s_epik_cmdline>  (113) 
J2VwaWtfcHl0aG9uJywgJy1waHQnLCAnMi4wJywgJy1waCcsICc3LjAnLCAnLXRuJywgJzgnLCAnLW1hJywgJzIwMCcsICctaW1hZScsICc8aW5maWxlLm1hZT4nLCAnLW9tYWUnLCAnPG91dGZpbGUubWFlPic=

>  <r_lp_tautomer_probability>  (113) 
1

>  <r_epik_Ionization_Penalty>  (113) 
0.743452

>  <r_epik_Ionization_Penalty_Charging>  (113) 
0

>  <r_epik_Ionization_Penalty_Neutral>  (113) 
0.743452

>  <r_epik_State_Penalty>  (113) 
0.554923

>  <r_epik_Charging_Adjusted_Penalty>  (113) 
0.554923

>  <i_epik_Tot_Q>  (113) 
0

>  <i_epik_Tot_abs_Q>  (113) 
0

>  <s_lp_Force_Field>  (113) 
OPLS3e

>  <r_lp_Energy>  (113) 
83.6963

>  <b_lp_Chiralities_Consistent>  (113) 
1

>  <s_lp_Variant>  (113) 
38:0-2

>  <s_i_glide_gridfile>  (113) 
pfpi4k_grid

>  <i_i_glide_lignum>  (113) 
17

>  <i_i_glide_rotatable_bonds>  (113) 
4

>  <r_i_docking_score>  (113) 
-3.16777

>  <r_i_glide_ligand_efficiency>  (113) 
-0.121837

>  <r_i_glide_ligand_efficiency_sa>  (113) 
-0.360942

>  <r_i_glide_ligand_efficiency_ln>  (113) 
-0.74394

>  <r_i_glide_gscore>  (113) 
-3.16777

>  <r_i_glide_lipo>  (113) 
-0.997594

>  <r_i_glide_hbond>  (113) 
-0.0628214

>  <r_i_glide_metal>  (113) 
-0

>  <r_i_glide_rewards>  (113) 
-1.193

>  <r_i_glide_evdw>  (113) 
-22.9227

>  <r_i_glide_ecoul>  (113) 
-0.47285

>  <r_i_glide_erotb>  (113) 
0.302709

>  <r_i_glide_esite>  (113) 
0

>  <r_i_glide_emodel>  (113) 
-27.0848

>  <r_i_glide_energy>  (113) 
-23.3956

>  <r_i_glide_einternal>  (113) 
1.8712

>  <r_i_glide_intrahb_reward>  (113) 
-0

>  <i_i_glide_confnum>  (113) 
2

>  <i_i_glide_posenum>  (113) 
33

>  <r_i_glide_eff_state_penalty>  (113) 
0

>  <ligand_id>  (113) 
38

>  <original_smiles>  (113) 
COC12CCC(=O)C3Oc4c(O)ccc5c4C31CCN(CC1CC1)C2C5

>  <smiles>  (113) 
[H]Oc1c([H])c([H])c2c3c1OC1([H])C(=O)C([H])([H])C([H])([H])C4(OC([H])([H])[H])C([H])(N(C([H])([H])C5([H])C([H])([H])C5([H])[H])C([H])([H])C([H])([H])C314)C2([H])[H]

$$$$
38:1:1
     RDKit          3D

 51 56  0  0  1  0  0  0  0  0999 V2000
    4.8651    0.5230    5.7857 C   0  0  0  0  0  0  0  0  0  0  0  0
    3.6894   -0.1121    5.3020 O   0  0  0  0  0  0  0  0  0  0  0  0
    3.7624   -0.8609    4.0804 C   0  0  1  0  0  0  0  0  0  0  0  0
    4.6573   -2.1327    4.3300 C   0  0  0  0  0  0  0  0  0  0  0  0
    4.0553   -3.1875    5.3292 C   0  0  0  0  0  0  0  0  0  0  0  0
    2.5379   -3.4203    5.1665 C   0  0  0  0  0  0  0  0  0  0  0  0
    2.0058   -4.5263    5.2124 O   0  0  0  0  0  0  0  0  0  0  0  0
    1.7744   -2.1251    4.9740 C   0  0  2  0  0  0  0  0  0  0  0  0
    0.3554   -2.1240    4.7504 O   0  0  0  0  0  0  0  0  0  0  0  0
    0.1745   -0.8577    4.2216 C   0  0  0  0  0  0  0  0  0  0  0  0
   -0.9722   -0.0462    4.0998 C   0  0  0  0  0  0  0  0  0  0  0  0
   -2.1841   -0.5318    4.4786 O   0  0  0  0  0  0  0  0  0  0  0  0
   -0.8532    1.2666    3.5560 C   0  0  0  0  0  0  0  0  0  0  0  0
    0.4044    1.7995    3.1490 C   0  0  0  0  0  0  0  0  0  0  0  0
    1.5561    0.9919    3.2350 C   0  0  0  0  0  0  0  0  0  0  0  0
    1.3374   -0.2958    3.7333 C   0  0  0  0  0  0  0  0  0  0  0  0
    2.3555   -1.3644    3.7908 C   0  0  1  0  0  0  0  0  0  0  0  0
    2.3319   -2.1530    2.4414 C   0  0  0  0  0  0  0  0  0  0  0  0
    2.7587   -1.2441    1.2807 C   0  0  0  0  0  0  0  0  0  0  0  0
    3.9913   -0.4838    1.5367 N   0  0  0  0  0  0  0  0  0  0  0  0
    5.2289   -1.0878    1.0637 C   0  0  0  0  0  0  0  0  0  0  0  0
    5.2435   -1.3752   -0.4238 C   0  0  0  0  0  0  0  0  0  0  0  0
    4.9239   -2.7687   -0.9240 C   0  0  0  0  0  0  0  0  0  0  0  0
    6.3338   -2.2447   -1.0084 C   0  0  0  0  0  0  0  0  0  0  0  0
    4.0381    0.1238    2.8800 C   0  0  1  0  0  0  0  0  0  0  0  0
    3.0225    1.3181    2.9186 C   0  0  0  0  0  0  0  0  0  0  0  0
    4.6017    1.0907    6.6773 H   0  0  0  0  0  0  0  0  0  0  0  0
    5.2857    1.2285    5.0703 H   0  0  0  0  0  0  0  0  0  0  0  0
    5.6345   -0.1865    6.0834 H   0  0  0  0  0  0  0  0  0  0  0  0
    4.8410   -2.6720    3.4069 H   0  0  0  0  0  0  0  0  0  0  0  0
    5.6503   -1.8473    4.6674 H   0  0  0  0  0  0  0  0  0  0  0  0
    4.5792   -4.1430    5.2479 H   0  0  0  0  0  0  0  0  0  0  0  0
    4.2092   -2.8377    6.3500 H   0  0  0  0  0  0  0  0  0  0  0  0
    1.9233   -1.5594    5.8935 H   0  0  0  0  0  0  0  0  0  0  0  0
   -2.8843   -0.0688    4.0242 H   0  0  0  0  0  0  0  0  0  0  0  0
   -1.7283    1.8854    3.4486 H   0  0  0  0  0  0  0  0  0  0  0  0
    0.4777    2.8054    2.7617 H   0  0  0  0  0  0  0  0  0  0  0  0
    2.9711   -3.0339    2.4544 H   0  0  0  0  0  0  0  0  0  0  0  0
    1.3362   -2.5475    2.2407 H   0  0  0  0  0  0  0  0  0  0  0  0
    2.8390   -1.8394    0.3746 H   0  0  0  0  0  0  0  0  0  0  0  0
    1.9486   -0.5412    1.0795 H   0  0  0  0  0  0  0  0  0  0  0  0
    6.0603   -0.4070    1.2584 H   0  0  0  0  0  0  0  0  0  0  0  0
    5.4470   -2.0137    1.5887 H   0  0  0  0  0  0  0  0  0  0  0  0
    4.9068   -0.5481   -1.0460 H   0  0  0  0  0  0  0  0  0  0  0  0
    4.6899   -3.5128   -0.1629 H   0  0  0  0  0  0  0  0  0  0  0  0
    4.3497   -2.8452   -1.8444 H   0  0  0  0  0  0  0  0  0  0  0  0
    6.7072   -2.0063   -2.0012 H   0  0  0  0  0  0  0  0  0  0  0  0
    7.0686   -2.6477   -0.3102 H   0  0  0  0  0  0  0  0  0  0  0  0
    5.0326    0.5433    3.0053 H   0  0  0  0  0  0  0  0  0  0  0  0
    3.0432    1.8409    1.9646 H   0  0  0  0  0  0  0  0  0  0  0  0
    3.3605    2.0385    3.6595 H   0  0  0  0  0  0  0  0  0  0  0  0
  1  2  1  0
  1 27  1  0
  1 28  1  0
  1 29  1  0
  3  2  1  1
  3 17  1  0
  3 25  1  0
  3  4  1  0
  4  5  1  0
  4 30  1  0
  4 31  1  0
  5  6  1  0
  5 32  1  0
  5 33  1  0
  6  7  2  0
  6  8  1  0
  8 17  1  0
  8  9  1  0
  8 34  1  1
  9 10  1  0
 10 16  2  0
 10 11  1  0
 11 12  1  0
 11 13  2  0
 12 35  1  0
 13 14  1  0
 13 36  1  0
 14 15  2  0
 14 37  1  0
 15 26  1  0
 15 16  1  0
 16 17  1  0
 17 18  1  6
 18 19  1  0
 18 38  1  0
 18 39  1  0
 19 20  1  0
 19 40  1  0
 19 41  1  0
 20 21  1  0
 20 25  1  0
 21 22  1  0
 21 42  1  0
 21 43  1  0
 22 24  1  0
 22 23  1  0
 22 44  1  0
 23 24  1  0
 23 45  1  0
 23 46  1  0
 24 47  1  0
 24 48  1  0
 25 26  1  0
 25 49  1  1
 26 50  1  0
 26 51  1  0
M  END
>  <i_m_ct_stereo_status>  (114) 
1

>  <s_m_source_file>  (114) 
/var/tmp/pbs.5076255.sched01/tmpgskxq70o/44i51uky9l.sdf

>  <i_m_source_file_index>  (114) 
17

>  <i_lp_mmshare_version>  (114) 
48012

>  <i_f3d_flags>  (114) 
0

>  <s_epik_input>  (114) 
W0NIMl0xW0NIMl1bQ0hdMVtDSDJdTihbQ0gyXVtDSDJdMilbQ0BIXShbQ0BdMyhbQ0BAXTI0NSlPW0NIM10pW0NIMl1jNmM1YyhjKFtPSF0pW2NIXVtjSF02KU9bQ0BIXTRDKD1PKVtDSDJdW0NIMl0z

>  <s_epik_cmdline>  (114) 
J2VwaWtfcHl0aG9uJywgJy1waHQnLCAnMi4wJywgJy1waCcsICc3LjAnLCAnLXRuJywgJzgnLCAnLW1hJywgJzIwMCcsICctaW1hZScsICc8aW5maWxlLm1hZT4nLCAnLW9tYWUnLCAnPG91dGZpbGUubWFlPic=

>  <r_lp_tautomer_probability>  (114) 
1

>  <r_epik_Ionization_Penalty>  (114) 
0.743452

>  <r_epik_Ionization_Penalty_Charging>  (114) 
0

>  <r_epik_Ionization_Penalty_Neutral>  (114) 
0.743452

>  <r_epik_State_Penalty>  (114) 
0.554923

>  <r_epik_Charging_Adjusted_Penalty>  (114) 
0.554923

>  <i_epik_Tot_Q>  (114) 
0

>  <i_epik_Tot_abs_Q>  (114) 
0

>  <s_lp_Force_Field>  (114) 
OPLS3e

>  <r_lp_Energy>  (114) 
83.6963

>  <b_lp_Chiralities_Consistent>  (114) 
1

>  <s_lp_Variant>  (114) 
38:0-2

>  <s_i_glide_gridfile>  (114) 
pfpi4k_grid

>  <i_i_glide_lignum>  (114) 
17

>  <i_i_glide_rotatable_bonds>  (114) 
4

>  <r_i_docking_score>  (114) 
-2.61436

>  <r_i_glide_ligand_efficiency>  (114) 
-0.100552

>  <r_i_glide_ligand_efficiency_sa>  (114) 
-0.297886

>  <r_i_glide_ligand_efficiency_ln>  (114) 
-0.613975

>  <r_i_glide_gscore>  (114) 
-2.61436

>  <r_i_glide_lipo>  (114) 
-0.1666

>  <r_i_glide_hbond>  (114) 
0

>  <r_i_glide_metal>  (114) 
-0

>  <r_i_glide_rewards>  (114) 
-0.985722

>  <r_i_glide_evdw>  (114) 
-19.1572

>  <r_i_glide_ecoul>  (114) 
-5.37928

>  <r_i_glide_erotb>  (114) 
0.302709

>  <r_i_glide_esite>  (114) 
0

>  <r_i_glide_emodel>  (114) 
-28.3543

>  <r_i_glide_energy>  (114) 
-24.5364

>  <r_i_glide_einternal>  (114) 
0.639704

>  <r_i_glide_intrahb_reward>  (114) 
-0

>  <i_i_glide_confnum>  (114) 
2

>  <i_i_glide_posenum>  (114) 
20

>  <r_i_glide_eff_state_penalty>  (114) 
0

>  <ligand_id>  (114) 
38

>  <original_smiles>  (114) 
COC12CCC(=O)C3Oc4c(O)ccc5c4C31CCN(CC1CC1)C2C5

>  <smiles>  (114) 
[H]Oc1c([H])c([H])c2c3c1OC1([H])C(=O)C([H])([H])C([H])([H])C4(OC([H])([H])[H])C([H])(N(C([H])([H])C5([H])C([H])([H])C5([H])[H])C([H])([H])C([H])([H])C314)C2([H])[H]

$$$$
38:1:2
     RDKit          3D

 51 56  0  0  1  0  0  0  0  0999 V2000
    5.8971   -7.4932    1.5118 C   0  0  0  0  0  0  0  0  0  0  0  0
    5.4452   -6.2024    1.8911 O   0  0  0  0  0  0  0  0  0  0  0  0
    4.2445   -6.0843    2.6656 C   0  0  1  0  0  0  0  0  0  0  0  0
    4.4895   -6.7406    4.0782 C   0  0  0  0  0  0  0  0  0  0  0  0
    5.5286   -5.9878    4.9882 C   0  0  0  0  0  0  0  0  0  0  0  0
    5.4188   -4.4513    4.9347 C   0  0  0  0  0  0  0  0  0  0  0  0
    5.5161   -3.7308    5.9234 O   0  0  0  0  0  0  0  0  0  0  0  0
    5.2345   -3.9299    3.5234 C   0  0  2  0  0  0  0  0  0  0  0  0
    5.0518   -2.5269    3.2709 O   0  0  0  0  0  0  0  0  0  0  0  0
    4.4998   -2.5558    2.0013 C   0  0  0  0  0  0  0  0  0  0  0  0
    4.4029   -1.5824    0.9798 C   0  0  0  0  0  0  0  0  0  0  0  0
    4.8603   -0.3149    1.1832 O   0  0  0  0  0  0  0  0  0  0  0  0
    3.8244   -1.9277   -0.2891 C   0  0  0  0  0  0  0  0  0  0  0  0
    3.3673   -3.2526   -0.5683 C   0  0  0  0  0  0  0  0  0  0  0  0
    3.4269   -4.2393    0.4333 C   0  0  0  0  0  0  0  0  0  0  0  0
    3.9570   -3.7917    1.6542 C   0  0  0  0  0  0  0  0  0  0  0  0
    4.0138   -4.6000    2.8914 C   0  0  1  0  0  0  0  0  0  0  0  0
    2.6949   -4.3684    3.6982 C   0  0  0  0  0  0  0  0  0  0  0  0
    1.5152   -4.8983    2.8999 C   0  0  0  0  0  0  0  0  0  0  0  0
    1.6734   -6.2660    2.3923 N   0  0  0  0  0  0  0  0  0  0  0  0
    1.1618   -7.3523    3.2173 C   0  0  0  0  0  0  0  0  0  0  0  0
   -0.3224   -7.2899    3.5253 C   0  0  0  0  0  0  0  0  0  0  0  0
   -1.0587   -8.4953    4.0430 C   0  0  0  0  0  0  0  0  0  0  0  0
   -1.3354   -7.9864    2.6482 C   0  0  0  0  0  0  0  0  0  0  0  0
    3.0067   -6.4934    1.7789 C   0  0  1  0  0  0  0  0  0  0  0  0
    3.0549   -5.7297    0.4258 C   0  0  0  0  0  0  0  0  0  0  0  0
    6.7822   -7.3710    0.8888 H   0  0  0  0  0  0  0  0  0  0  0  0
    5.1588   -8.0368    0.9252 H   0  0  0  0  0  0  0  0  0  0  0  0
    6.1986   -8.1013    2.3625 H   0  0  0  0  0  0  0  0  0  0  0  0
    3.5742   -6.7819    4.6568 H   0  0  0  0  0  0  0  0  0  0  0  0
    4.7832   -7.7838    3.9825 H   0  0  0  0  0  0  0  0  0  0  0  0
    5.4498   -6.3243    6.0252 H   0  0  0  0  0  0  0  0  0  0  0  0
    6.5369   -6.2408    4.6587 H   0  0  0  0  0  0  0  0  0  0  0  0
    6.1318   -4.2207    2.9759 H   0  0  0  0  0  0  0  0  0  0  0  0
    4.6567    0.2719    0.4829 H   0  0  0  0  0  0  0  0  0  0  0  0
    3.7311   -1.1839   -1.0575 H   0  0  0  0  0  0  0  0  0  0  0  0
    2.9682   -3.5019   -1.5311 H   0  0  0  0  0  0  0  0  0  0  0  0
    2.7062   -4.8430    4.6808 H   0  0  0  0  0  0  0  0  0  0  0  0
    2.5414   -3.3091    3.9036 H   0  0  0  0  0  0  0  0  0  0  0  0
    0.6404   -4.7654    3.5263 H   0  0  0  0  0  0  0  0  0  0  0  0
    1.3743   -4.2225    2.0690 H   0  0  0  0  0  0  0  0  0  0  0  0
    1.3335   -8.2993    2.6929 H   0  0  0  0  0  0  0  0  0  0  0  0
    1.6979   -7.4324    4.1565 H   0  0  0  0  0  0  0  0  0  0  0  0
   -0.6752   -6.3876    4.0235 H   0  0  0  0  0  0  0  0  0  0  0  0
   -0.4801   -9.4098    4.1664 H   0  0  0  0  0  0  0  0  0  0  0  0
   -1.7996   -8.3042    4.8121 H   0  0  0  0  0  0  0  0  0  0  0  0
   -2.2708   -7.4643    2.4757 H   0  0  0  0  0  0  0  0  0  0  0  0
   -0.9442   -8.5537    1.8023 H   0  0  0  0  0  0  0  0  0  0  0  0
    3.0785   -7.5510    1.5272 H   0  0  0  0  0  0  0  0  0  0  0  0
    2.1005   -5.8277   -0.0979 H   0  0  0  0  0  0  0  0  0  0  0  0
    3.7868   -6.2095   -0.2279 H   0  0  0  0  0  0  0  0  0  0  0  0
  1  2  1  0
  1 27  1  0
  1 28  1  0
  1 29  1  0
  3  2  1  6
  3 17  1  0
  3 25  1  0
  3  4  1  0
  4  5  1  0
  4 30  1  0
  4 31  1  0
  5  6  1  0
  5 32  1  0
  5 33  1  0
  6  7  2  0
  6  8  1  0
  8 17  1  0
  8  9  1  0
  8 34  1  6
  9 10  1  0
 10 16  2  0
 10 11  1  0
 11 12  1  0
 11 13  2  0
 12 35  1  0
 13 14  1  0
 13 36  1  0
 14 15  2  0
 14 37  1  0
 15 26  1  0
 15 16  1  0
 16 17  1  0
 17 18  1  1
 18 19  1  0
 18 38  1  0
 18 39  1  0
 19 20  1  0
 19 40  1  0
 19 41  1  0
 20 21  1  0
 20 25  1  0
 21 22  1  0
 21 42  1  0
 21 43  1  0
 22 24  1  0
 22 23  1  0
 22 44  1  0
 23 24  1  0
 23 45  1  0
 23 46  1  0
 24 47  1  0
 24 48  1  0
 25 26  1  0
 25 49  1  6
 26 50  1  0
 26 51  1  0
M  END
>  <i_m_ct_stereo_status>  (115) 
1

>  <s_m_source_file>  (115) 
/var/tmp/pbs.5076255.sched01/tmpgskxq70o/44i51uky9l.sdf

>  <i_m_source_file_index>  (115) 
17

>  <i_lp_mmshare_version>  (115) 
48012

>  <i_f3d_flags>  (115) 
0

>  <s_epik_input>  (115) 
W0NIMl0xW0NIMl1bQ0hdMVtDSDJdTihbQ0gyXVtDSDJdMilbQ0BIXShbQ0BdMyhbQ0BAXTI0NSlPW0NIM10pW0NIMl1jNmM1YyhjKFtPSF0pW2NIXVtjSF02KU9bQ0BIXTRDKD1PKVtDSDJdW0NIMl0z

>  <s_epik_cmdline>  (115) 
J2VwaWtfcHl0aG9uJywgJy1waHQnLCAnMi4wJywgJy1waCcsICc3LjAnLCAnLXRuJywgJzgnLCAnLW1hJywgJzIwMCcsICctaW1hZScsICc8aW5maWxlLm1hZT4nLCAnLW9tYWUnLCAnPG91dGZpbGUubWFlPic=

>  <r_lp_tautomer_probability>  (115) 
1

>  <r_epik_Ionization_Penalty>  (115) 
0.743452

>  <r_epik_Ionization_Penalty_Charging>  (115) 
0

>  <r_epik_Ionization_Penalty_Neutral>  (115) 
0.743452

>  <r_epik_State_Penalty>  (115) 
0.554923

>  <r_epik_Charging_Adjusted_Penalty>  (115) 
0.554923

>  <i_epik_Tot_Q>  (115) 
0

>  <i_epik_Tot_abs_Q>  (115) 
0

>  <s_lp_Force_Field>  (115) 
OPLS3e

>  <r_lp_Energy>  (115) 
83.6963

>  <b_lp_Chiralities_Consistent>  (115) 
1

>  <s_lp_Variant>  (115) 
38:0-2

>  <s_i_glide_gridfile>  (115) 
pfpi4k_grid

>  <i_i_glide_lignum>  (115) 
17

>  <i_i_glide_rotatable_bonds>  (115) 
4

>  <r_i_docking_score>  (115) 
-2.33434

>  <r_i_glide_ligand_efficiency>  (115) 
-0.0897823

>  <r_i_glide_ligand_efficiency_sa>  (115) 
-0.26598

>  <r_i_glide_ligand_efficiency_ln>  (115) 
-0.548212

>  <r_i_glide_gscore>  (115) 
-2.33434

>  <r_i_glide_lipo>  (115) 
-0.211545

>  <r_i_glide_hbond>  (115) 
0

>  <r_i_glide_metal>  (115) 
-0

>  <r_i_glide_rewards>  (115) 
-0.987957

>  <r_i_glide_evdw>  (115) 
-20.8599

>  <r_i_glide_ecoul>  (115) 
-2.63034

>  <r_i_glide_erotb>  (115) 
0.302709

>  <r_i_glide_esite>  (115) 
0

>  <r_i_glide_emodel>  (115) 
-27.0621

>  <r_i_glide_energy>  (115) 
-23.4902

>  <r_i_glide_einternal>  (115) 
0.272791

>  <r_i_glide_intrahb_reward>  (115) 
-0

>  <i_i_glide_confnum>  (115) 
1

>  <i_i_glide_posenum>  (115) 
26

>  <r_i_glide_eff_state_penalty>  (115) 
0

>  <ligand_id>  (115) 
38

>  <original_smiles>  (115) 
COC12CCC(=O)C3Oc4c(O)ccc5c4C31CCN(CC1CC1)C2C5

>  <smiles>  (115) 
[H]Oc1c([H])c([H])c2c3c1OC1([H])C(=O)C([H])([H])C([H])([H])C4(OC([H])([H])[H])C([H])(N(C([H])([H])C5([H])C([H])([H])C5([H])[H])C([H])([H])C([H])([H])C314)C2([H])[H]

$$$$
38:2:0
     RDKit          3D

 51 56  0  0  1  0  0  0  0  0999 V2000
    3.5271    2.7291    4.3625 C   0  0  0  0  0  0  0  0  0  0  0  0
    2.9824    1.4342    4.5878 O   0  0  0  0  0  0  0  0  0  0  0  0
    3.3157    0.3573    3.6999 C   0  0  1  0  0  0  0  0  0  0  0  0
    4.8338   -0.0047    3.9260 C   0  0  0  0  0  0  0  0  0  0  0  0
    5.1771   -0.5972    5.3431 C   0  0  0  0  0  0  0  0  0  0  0  0
    4.1376   -1.5996    5.8730 C   0  0  0  0  0  0  0  0  0  0  0  0
    4.4316   -2.6547    6.4264 O   0  0  0  0  0  0  0  0  0  0  0  0
    2.7218   -1.1165    5.6612 C   0  0  2  0  0  0  0  0  0  0  0  0
    1.6069   -1.9443    6.0234 O   0  0  0  0  0  0  0  0  0  0  0  0
    0.5968   -1.3612    5.2873 C   0  0  0  0  0  0  0  0  0  0  0  0
   -0.8069   -1.4317    5.3889 C   0  0  0  0  0  0  0  0  0  0  0  0
   -1.3658   -2.2918    6.2930 O   0  0  0  0  0  0  0  0  0  0  0  0
   -1.6144   -0.6321    4.5281 C   0  0  0  0  0  0  0  0  0  0  0  0
   -1.0503    0.2361    3.5420 C   0  0  0  0  0  0  0  0  0  0  0  0
    0.3465    0.2543    3.3681 C   0  0  0  0  0  0  0  0  0  0  0  0
    1.0473   -0.5675    4.2431 C   0  0  0  0  0  0  0  0  0  0  0  0
    2.4994   -0.8282    4.1833 C   0  0  1  0  0  0  0  0  0  0  0  0
    2.7308   -2.0602    3.2586 C   0  0  0  0  0  0  0  0  0  0  0  0
    2.2426   -1.7799    1.8403 C   0  0  0  0  0  0  0  0  0  0  0  0
    2.7823   -0.5141    1.2968 N   0  0  2  0  0  0  0  0  0  0  0  0
    4.0677   -0.6919    0.5752 C   0  0  0  0  0  0  0  0  0  0  0  0
    3.9070   -1.4353   -0.7491 C   0  0  0  0  0  0  0  0  0  0  0  0
    5.1444   -1.9647   -1.4512 C   0  0  0  0  0  0  0  0  0  0  0  0
    4.3524   -0.8522   -2.0701 C   0  0  0  0  0  0  0  0  0  0  0  0
    2.7237    0.6405    2.2615 C   0  0  1  0  0  0  0  0  0  0  0  0
    1.2233    1.0801    2.4019 C   0  0  0  0  0  0  0  0  0  0  0  0
    3.1181    3.4134    5.1041 H   0  0  0  0  0  0  0  0  0  0  0  0
    3.2658    3.1295    3.3845 H   0  0  0  0  0  0  0  0  0  0  0  0
    4.6064    2.7496    4.4879 H   0  0  0  0  0  0  0  0  0  0  0  0
    5.1759   -0.7315    3.1983 H   0  0  0  0  0  0  0  0  0  0  0  0
    5.4649    0.8631    3.7537 H   0  0  0  0  0  0  0  0  0  0  0  0
    6.1622   -1.0641    5.3522 H   0  0  0  0  0  0  0  0  0  0  0  0
    5.2241    0.2102    6.0742 H   0  0  0  0  0  0  0  0  0  0  0  0
    2.6153   -0.2089    6.2532 H   0  0  0  0  0  0  0  0  0  0  0  0
   -2.6851   -0.6922    4.5877 H   0  0  0  0  0  0  0  0  0  0  0  0
   -1.6822    0.8140    2.8757 H   0  0  0  0  0  0  0  0  0  0  0  0
    3.7779   -2.3596    3.2228 H   0  0  0  0  0  0  0  0  0  0  0  0
    2.2131   -2.9386    3.6368 H   0  0  0  0  0  0  0  0  0  0  0  0
    2.5003   -2.6331    1.2208 H   0  0  0  0  0  0  0  0  0  0  0  0
    1.1547   -1.7435    1.8122 H   0  0  0  0  0  0  0  0  0  0  0  0
    4.5269    0.2722    0.3710 H   0  0  0  0  0  0  0  0  0  0  0  0
    4.7670   -1.2552    1.1856 H   0  0  0  0  0  0  0  0  0  0  0  0
    3.0529   -2.1068   -0.8229 H   0  0  0  0  0  0  0  0  0  0  0  0
    6.1157   -1.7325   -1.0230 H   0  0  0  0  0  0  0  0  0  0  0  0
    5.0731   -2.9372   -1.9361 H   0  0  0  0  0  0  0  0  0  0  0  0
    3.7460   -1.0866   -2.9394 H   0  0  0  0  0  0  0  0  0  0  0  0
    4.7746    0.1430   -2.0604 H   0  0  0  0  0  0  0  0  0  0  0  0
    3.2607    1.4714    1.8026 H   0  0  0  0  0  0  0  0  0  0  0  0
    0.7417    1.1182    1.4280 H   0  0  0  0  0  0  0  0  0  0  0  0
    1.1877    2.0941    2.7837 H   0  0  0  0  0  0  0  0  0  0  0  0
    2.1201   -0.2727    0.5608 H   0  0  0  0  0  0  0  0  0  0  0  0
  1  2  1  0
  1 27  1  0
  1 28  1  0
  1 29  1  0
  3  2  1  1
  3 17  1  0
  3 25  1  0
  3  4  1  0
  4  5  1  0
  4 30  1  0
  4 31  1  0
  5  6  1  0
  5 32  1  0
  5 33  1  0
  6  7  2  0
  6  8  1  0
  8 17  1  0
  8  9  1  0
  8 34  1  1
  9 10  1  0
 10 16  2  0
 10 11  1  0
 11 12  1  0
 11 13  2  0
 13 14  1  0
 13 35  1  0
 14 15  2  0
 14 36  1  0
 15 26  1  0
 15 16  1  0
 16 17  1  0
 17 18  1  6
 18 19  1  0
 18 37  1  0
 18 38  1  0
 19 20  1  0
 19 39  1  0
 19 40  1  0
 20 21  1  0
 20 25  1  0
 20 51  1  6
 21 22  1  0
 21 41  1  0
 21 42  1  0
 22 24  1  0
 22 23  1  0
 22 43  1  0
 23 24  1  0
 23 44  1  0
 23 45  1  0
 24 46  1  0
 24 47  1  0
 25 26  1  0
 25 48  1  6
 26 49  1  0
 26 50  1  0
M  CHG  2  12  -1  20   1
M  END
>  <i_m_ct_stereo_status>  (116) 
1

>  <s_m_source_file>  (116) 
/var/tmp/pbs.5076255.sched01/tmpgskxq70o/44i51uky9l.sdf

>  <i_m_source_file_index>  (116) 
18

>  <i_lp_mmshare_version>  (116) 
48012

>  <i_f3d_flags>  (116) 
0

>  <s_epik_input>  (116) 
W0NIMl0xW0NIMl1bQ0hdMVtDSDJdTihbQ0gyXVtDSDJdMilbQ0BIXShbQ0BdMyhbQ0BAXTI0NSlPW0NIM10pW0NIMl1jNmM1YyhjKFtPSF0pW2NIXVtjSF02KU9bQ0BIXTRDKD1PKVtDSDJdW0NIMl0z

>  <s_epik_cmdline>  (116) 
J2VwaWtfcHl0aG9uJywgJy1waHQnLCAnMi4wJywgJy1waCcsICc3LjAnLCAnLXRuJywgJzgnLCAnLW1hJywgJzIwMCcsICctaW1hZScsICc8aW5maWxlLm1hZT4nLCAnLW9tYWUnLCAnPG91dGZpbGUubWFlPic=

>  <r_epik_Ionization_Penalty>  (116) 
2.05362

>  <r_epik_Ionization_Penalty_Charging>  (116) 
2.05362

>  <r_epik_Ionization_Penalty_Neutral>  (116) 
4.16244e-10

>  <r_epik_State_Penalty>  (116) 
2.61286

>  <r_epik_Charging_Adjusted_Penalty>  (116) 
4.66648

>  <i_epik_Tot_Q>  (116) 
0

>  <i_epik_Tot_abs_Q>  (116) 
2

>  <s_lp_Force_Field>  (116) 
OPLS3e

>  <r_lp_Energy>  (116) 
76.4548

>  <b_lp_Chiralities_Consistent>  (116) 
1

>  <s_lp_Variant>  (116) 
38:0-3

>  <s_i_glide_gridfile>  (116) 
pfpi4k_grid

>  <i_i_glide_lignum>  (116) 
18

>  <i_i_glide_rotatable_bonds>  (116) 
3

>  <r_i_docking_score>  (116) 
-3.16904

>  <r_i_glide_ligand_efficiency>  (116) 
-0.121886

>  <r_i_glide_ligand_efficiency_sa>  (116) 
-0.361088

>  <r_i_glide_ligand_efficiency_ln>  (116) 
-0.74424

>  <r_i_glide_gscore>  (116) 
-3.16904

>  <r_i_glide_lipo>  (116) 
-0.197422

>  <r_i_glide_hbond>  (116) 
-0.171996

>  <r_i_glide_metal>  (116) 
-0

>  <r_i_glide_rewards>  (116) 
-1.28623

>  <r_i_glide_evdw>  (116) 
-17.5312

>  <r_i_glide_ecoul>  (116) 
-5.86334

>  <r_i_glide_erotb>  (116) 
0.302709

>  <r_i_glide_esite>  (116) 
-0.0600452

>  <r_i_glide_emodel>  (116) 
-30.9335

>  <r_i_glide_energy>  (116) 
-23.3946

>  <r_i_glide_einternal>  (116) 
1.64932

>  <r_i_glide_intrahb_reward>  (116) 
-0

>  <i_i_glide_confnum>  (116) 
4

>  <i_i_glide_posenum>  (116) 
37

>  <r_i_glide_eff_state_penalty>  (116) 
0

>  <ligand_id>  (116) 
38

>  <original_smiles>  (116) 
COC12CCC(=O)C3Oc4c(O)ccc5c4C31CCN(CC1CC1)C2C5

>  <smiles>  (116) 
[H]c1c([H])c2c3c(c1[O-])OC1([H])C(=O)C([H])([H])C([H])([H])C4(OC([H])([H])[H])C31C([H])([H])C([H])([H])[N+]([H])(C([H])([H])C1([H])C([H])([H])C1([H])[H])C4([H])C2([H])[H]

$$$$
38:2:1
     RDKit          3D

 51 56  0  0  1  0  0  0  0  0999 V2000
    3.9309    2.0536    4.8059 C   0  0  0  0  0  0  0  0  0  0  0  0
    3.1227    0.8854    4.8235 O   0  0  0  0  0  0  0  0  0  0  0  0
    3.2855   -0.1035    3.7926 C   0  0  1  0  0  0  0  0  0  0  0  0
    4.7241   -0.7322    3.9397 C   0  0  0  0  0  0  0  0  0  0  0  0
    4.9551   -1.5550    5.2621 C   0  0  0  0  0  0  0  0  0  0  0  0
    3.7659   -2.4412    5.6700 C   0  0  0  0  0  0  0  0  0  0  0  0
    3.8864   -3.5978    6.0712 O   0  0  0  0  0  0  0  0  0  0  0  0
    2.4395   -1.7197    5.5446 C   0  0  2  0  0  0  0  0  0  0  0  0
    1.1961   -2.3945    5.8036 O   0  0  0  0  0  0  0  0  0  0  0  0
    0.2972   -1.5694    5.1639 C   0  0  0  0  0  0  0  0  0  0  0  0
   -1.1049   -1.4290    5.2748 C   0  0  0  0  0  0  0  0  0  0  0  0
   -1.8136   -2.2696    6.0750 O   0  0  0  0  0  0  0  0  0  0  0  0
   -1.7519   -0.4100    4.5266 C   0  0  0  0  0  0  0  0  0  0  0  0
   -1.0587    0.4742    3.6505 C   0  0  0  0  0  0  0  0  0  0  0  0
    0.3289    0.3034    3.4835 C   0  0  0  0  0  0  0  0  0  0  0  0
    0.8906   -0.7328    4.2417 C   0  0  0  0  0  0  0  0  0  0  0  0
    2.2850   -1.1995    4.1266 C   0  0  1  0  0  0  0  0  0  0  0  0
    2.3334   -2.3159    3.0405 C   0  0  0  0  0  0  0  0  0  0  0  0
    1.8933   -1.7621    1.6825 C   0  0  0  0  0  0  0  0  0  0  0  0
    2.6412   -0.5407    1.3018 N   0  0  2  0  0  0  0  0  0  0  0  0
    3.8886   -0.8294    0.5488 C   0  0  0  0  0  0  0  0  0  0  0  0
    3.6194   -1.3377   -0.8659 C   0  0  0  0  0  0  0  0  0  0  0  0
    3.4816   -2.8222   -1.1432 C   0  0  0  0  0  0  0  0  0  0  0  0
    4.6989   -2.0840   -1.6241 C   0  0  0  0  0  0  0  0  0  0  0  0
    2.7599    0.4718    2.4113 C   0  0  1  0  0  0  0  0  0  0  0  0
    1.3356    1.1059    2.6360 C   0  0  0  0  0  0  0  0  0  0  0  0
    3.6202    2.6971    5.6275 H   0  0  0  0  0  0  0  0  0  0  0  0
    3.8117    2.6267    3.8890 H   0  0  0  0  0  0  0  0  0  0  0  0
    4.9855    1.8392    4.9683 H   0  0  0  0  0  0  0  0  0  0  0  0
    4.9471   -1.3981    3.1129 H   0  0  0  0  0  0  0  0  0  0  0  0
    5.4905    0.0356    3.8656 H   0  0  0  0  0  0  0  0  0  0  0  0
    5.8434   -2.1784    5.1919 H   0  0  0  0  0  0  0  0  0  0  0  0
    5.1258   -0.8701    6.0931 H   0  0  0  0  0  0  0  0  0  0  0  0
    2.4818   -0.8931    6.2532 H   0  0  0  0  0  0  0  0  0  0  0  0
   -2.8176   -0.3128    4.5955 H   0  0  0  0  0  0  0  0  0  0  0  0
   -1.5831    1.2297    3.0752 H   0  0  0  0  0  0  0  0  0  0  0  0
    3.3176   -2.7714    2.9394 H   0  0  0  0  0  0  0  0  0  0  0  0
    1.6751   -3.1494    3.2970 H   0  0  0  0  0  0  0  0  0  0  0  0
    1.9859   -2.5398    0.9349 H   0  0  0  0  0  0  0  0  0  0  0  0
    0.8276   -1.5356    1.6966 H   0  0  0  0  0  0  0  0  0  0  0  0
    4.5075    0.0670    0.4646 H   0  0  0  0  0  0  0  0  0  0  0  0
    4.4762   -1.5840    1.0698 H   0  0  0  0  0  0  0  0  0  0  0  0
    3.0215   -0.6670   -1.4847 H   0  0  0  0  0  0  0  0  0  0  0  0
    3.6122   -3.5064   -0.3055 H   0  0  0  0  0  0  0  0  0  0  0  0
    2.7312   -3.1201   -1.8754 H   0  0  0  0  0  0  0  0  0  0  0  0
    4.7732   -1.9609   -2.7021 H   0  0  0  0  0  0  0  0  0  0  0  0
    5.6347   -2.2942   -1.1101 H   0  0  0  0  0  0  0  0  0  0  0  0
    3.4212    1.2690    2.0671 H   0  0  0  0  0  0  0  0  0  0  0  0
    0.8780    1.3555    1.6742 H   0  0  0  0  0  0  0  0  0  0  0  0
    1.4620    2.0618    3.1521 H   0  0  0  0  0  0  0  0  0  0  0  0
    2.0332   -0.1184    0.6100 H   0  0  0  0  0  0  0  0  0  0  0  0
  1  2  1  0
  1 27  1  0
  1 28  1  0
  1 29  1  0
  3  2  1  1
  3 17  1  0
  3 25  1  0
  3  4  1  0
  4  5  1  0
  4 30  1  0
  4 31  1  0
  5  6  1  0
  5 32  1  0
  5 33  1  0
  6  7  2  0
  6  8  1  0
  8 17  1  0
  8  9  1  0
  8 34  1  1
  9 10  1  0
 10 16  2  0
 10 11  1  0
 11 12  1  0
 11 13  2  0
 13 14  1  0
 13 35  1  0
 14 15  2  0
 14 36  1  0
 15 26  1  0
 15 16  1  0
 16 17  1  0
 17 18  1  6
 18 19  1  0
 18 37  1  0
 18 38  1  0
 19 20  1  0
 19 39  1  0
 19 40  1  0
 20 21  1  0
 20 25  1  0
 20 51  1  6
 21 22  1  0
 21 41  1  0
 21 42  1  0
 22 24  1  0
 22 23  1  0
 22 43  1  0
 23 24  1  0
 23 44  1  0
 23 45  1  0
 24 46  1  0
 24 47  1  0
 25 26  1  0
 25 48  1  6
 26 49  1  0
 26 50  1  0
M  CHG  2  12  -1  20   1
M  END
>  <i_m_ct_stereo_status>  (117) 
1

>  <s_m_source_file>  (117) 
/var/tmp/pbs.5076255.sched01/tmpgskxq70o/44i51uky9l.sdf

>  <i_m_source_file_index>  (117) 
18

>  <i_lp_mmshare_version>  (117) 
48012

>  <i_f3d_flags>  (117) 
0

>  <s_epik_input>  (117) 
W0NIMl0xW0NIMl1bQ0hdMVtDSDJdTihbQ0gyXVtDSDJdMilbQ0BIXShbQ0BdMyhbQ0BAXTI0NSlPW0NIM10pW0NIMl1jNmM1YyhjKFtPSF0pW2NIXVtjSF02KU9bQ0BIXTRDKD1PKVtDSDJdW0NIMl0z

>  <s_epik_cmdline>  (117) 
J2VwaWtfcHl0aG9uJywgJy1waHQnLCAnMi4wJywgJy1waCcsICc3LjAnLCAnLXRuJywgJzgnLCAnLW1hJywgJzIwMCcsICctaW1hZScsICc8aW5maWxlLm1hZT4nLCAnLW9tYWUnLCAnPG91dGZpbGUubWFlPic=

>  <r_epik_Ionization_Penalty>  (117) 
2.05362

>  <r_epik_Ionization_Penalty_Charging>  (117) 
2.05362

>  <r_epik_Ionization_Penalty_Neutral>  (117) 
4.16244e-10

>  <r_epik_State_Penalty>  (117) 
2.61286

>  <r_epik_Charging_Adjusted_Penalty>  (117) 
4.66648

>  <i_epik_Tot_Q>  (117) 
0

>  <i_epik_Tot_abs_Q>  (117) 
2

>  <s_lp_Force_Field>  (117) 
OPLS3e

>  <r_lp_Energy>  (117) 
76.4548

>  <b_lp_Chiralities_Consistent>  (117) 
1

>  <s_lp_Variant>  (117) 
38:0-3

>  <s_i_glide_gridfile>  (117) 
pfpi4k_grid

>  <i_i_glide_lignum>  (117) 
18

>  <i_i_glide_rotatable_bonds>  (117) 
3

>  <r_i_docking_score>  (117) 
-3.02971

>  <r_i_glide_ligand_efficiency>  (117) 
-0.116527

>  <r_i_glide_ligand_efficiency_sa>  (117) 
-0.345212

>  <r_i_glide_ligand_efficiency_ln>  (117) 
-0.711519

>  <r_i_glide_gscore>  (117) 
-3.02971

>  <r_i_glide_lipo>  (117) 
-0.120228

>  <r_i_glide_hbond>  (117) 
-0.107547

>  <r_i_glide_metal>  (117) 
-0

>  <r_i_glide_rewards>  (117) 
-1.28572

>  <r_i_glide_evdw>  (117) 
-17.6777

>  <r_i_glide_ecoul>  (117) 
-5.78318

>  <r_i_glide_erotb>  (117) 
0.302709

>  <r_i_glide_esite>  (117) 
-0.067563

>  <r_i_glide_emodel>  (117) 
-30.8537

>  <r_i_glide_energy>  (117) 
-23.4609

>  <r_i_glide_einternal>  (117) 
1.26865

>  <r_i_glide_intrahb_reward>  (117) 
-0

>  <i_i_glide_confnum>  (117) 
4

>  <i_i_glide_posenum>  (117) 
29

>  <r_i_glide_eff_state_penalty>  (117) 
0

>  <ligand_id>  (117) 
38

>  <original_smiles>  (117) 
COC12CCC(=O)C3Oc4c(O)ccc5c4C31CCN(CC1CC1)C2C5

>  <smiles>  (117) 
[H]c1c([H])c2c3c(c1[O-])OC1([H])C(=O)C([H])([H])C([H])([H])C4(OC([H])([H])[H])C31C([H])([H])C([H])([H])[N+]([H])(C([H])([H])C1([H])C([H])([H])C1([H])[H])C4([H])C2([H])[H]

$$$$
38:2:2
     RDKit          3D

 51 56  0  0  1  0  0  0  0  0999 V2000
    3.6855    0.0384    6.3167 C   0  0  0  0  0  0  0  0  0  0  0  0
    2.3308    0.4096    6.0885 O   0  0  0  0  0  0  0  0  0  0  0  0
    1.7576    0.2309    4.7826 C   0  0  1  0  0  0  0  0  0  0  0  0
    1.6651   -1.3205    4.5040 C   0  0  0  0  0  0  0  0  0  0  0  0
    0.6637   -2.1047    5.4303 C   0  0  0  0  0  0  0  0  0  0  0  0
   -0.6589   -1.3558    5.6914 C   0  0  0  0  0  0  0  0  0  0  0  0
   -1.7687   -1.8868    5.6798 O   0  0  0  0  0  0  0  0  0  0  0  0
   -0.4383    0.1055    6.0125 C   0  0  2  0  0  0  0  0  0  0  0  0
   -1.5522    0.9834    6.2433 O   0  0  0  0  0  0  0  0  0  0  0  0
   -0.9659    2.2177    6.0331 C   0  0  0  0  0  0  0  0  0  0  0  0
   -1.3519    3.5242    6.4052 C   0  0  0  0  0  0  0  0  0  0  0  0
   -2.5327    3.7246    7.0582 O   0  0  0  0  0  0  0  0  0  0  0  0
   -0.4930    4.6188    6.1030 C   0  0  0  0  0  0  0  0  0  0  0  0
    0.7578    4.4514    5.4498 C   0  0  0  0  0  0  0  0  0  0  0  0
    1.1476    3.1579    5.0458 C   0  0  0  0  0  0  0  0  0  0  0  0
    0.2274    2.1488    5.3393 C   0  0  0  0  0  0  0  0  0  0  0  0
    0.3307    0.7547    4.8742 C   0  0  1  0  0  0  0  0  0  0  0  0
   -0.3774    0.6567    3.4847 C   0  0  0  0  0  0  0  0  0  0  0  0
    0.3154    1.5434    2.4429 C   0  0  0  0  0  0  0  0  0  0  0  0
    1.7843    1.3161    2.4111 N   0  0  2  0  0  0  0  0  0  0  0  0
    2.1733    0.2990    1.3991 C   0  0  0  0  0  0  0  0  0  0  0  0
    3.6536    0.2740    1.0771 C   0  0  0  0  0  0  0  0  0  0  0  0
    4.2056   -0.8353    0.2076 C   0  0  0  0  0  0  0  0  0  0  0  0
    4.5549   -0.7818    1.6725 C   0  0  0  0  0  0  0  0  0  0  0  0
    2.4420    1.2290    3.7670 C   0  0  1  0  0  0  0  0  0  0  0  0
    2.4521    2.6747    4.3863 C   0  0  0  0  0  0  0  0  0  0  0  0
    3.9416    0.3046    7.3418 H   0  0  0  0  0  0  0  0  0  0  0  0
    4.3778    0.5713    5.6675 H   0  0  0  0  0  0  0  0  0  0  0  0
    3.8566   -1.0330    6.2234 H   0  0  0  0  0  0  0  0  0  0  0  0
    1.3413   -1.5239    3.4901 H   0  0  0  0  0  0  0  0  0  0  0  0
    2.6481   -1.7841    4.5637 H   0  0  0  0  0  0  0  0  0  0  0  0
    0.4520   -3.0957    5.0259 H   0  0  0  0  0  0  0  0  0  0  0  0
    1.1296   -2.2664    6.4039 H   0  0  0  0  0  0  0  0  0  0  0  0
    0.1438    0.1246    6.9341 H   0  0  0  0  0  0  0  0  0  0  0  0
   -0.7866    5.6132    6.3886 H   0  0  0  0  0  0  0  0  0  0  0  0
    1.4067    5.2933    5.2542 H   0  0  0  0  0  0  0  0  0  0  0  0
   -0.4038   -0.3622    3.1068 H   0  0  0  0  0  0  0  0  0  0  0  0
   -1.4252    0.9512    3.5592 H   0  0  0  0  0  0  0  0  0  0  0  0
   -0.1319    1.3878    1.4595 H   0  0  0  0  0  0  0  0  0  0  0  0
    0.1198    2.5945    2.6609 H   0  0  0  0  0  0  0  0  0  0  0  0
    1.8345   -0.6965    1.6601 H   0  0  0  0  0  0  0  0  0  0  0  0
    1.6621    0.5483    0.4811 H   0  0  0  0  0  0  0  0  0  0  0  0
    4.0911    1.2498    0.8832 H   0  0  0  0  0  0  0  0  0  0  0  0
    3.5215   -1.6154   -0.1224 H   0  0  0  0  0  0  0  0  0  0  0  0
    4.9987   -0.5865   -0.4937 H   0  0  0  0  0  0  0  0  0  0  0  0
    5.5616   -0.4676    1.9427 H   0  0  0  0  0  0  0  0  0  0  0  0
    4.0887   -1.5053    2.3386 H   0  0  0  0  0  0  0  0  0  0  0  0
    3.4830    0.9412    3.6112 H   0  0  0  0  0  0  0  0  0  0  0  0
    2.7603    3.4027    3.6356 H   0  0  0  0  0  0  0  0  0  0  0  0
    3.2219    2.7136    5.1572 H   0  0  0  0  0  0  0  0  0  0  0  0
    2.1391    2.1789    2.0230 H   0  0  0  0  0  0  0  0  0  0  0  0
  1  2  1  0
  1 27  1  0
  1 28  1  0
  1 29  1  0
  3  2  1  1
  3 17  1  0
  3 25  1  0
  3  4  1  0
  4  5  1  0
  4 30  1  0
  4 31  1  0
  5  6  1  0
  5 32  1  0
  5 33  1  0
  6  7  2  0
  6  8  1  0
  8 17  1  0
  8  9  1  0
  8 34  1  1
  9 10  1  0
 10 16  2  0
 10 11  1  0
 11 12  1  0
 11 13  2  0
 13 14  1  0
 13 35  1  0
 14 15  2  0
 14 36  1  0
 15 26  1  0
 15 16  1  0
 16 17  1  0
 17 18  1  6
 18 19  1  0
 18 37  1  0
 18 38  1  0
 19 20  1  0
 19 39  1  0
 19 40  1  0
 20 21  1  0
 20 25  1  0
 20 51  1  6
 21 22  1  0
 21 41  1  0
 21 42  1  0
 22 24  1  0
 22 23  1  0
 22 43  1  0
 23 24  1  0
 23 44  1  0
 23 45  1  0
 24 46  1  0
 24 47  1  0
 25 26  1  0
 25 48  1  6
 26 49  1  0
 26 50  1  0
M  CHG  2  12  -1  20   1
M  END
>  <i_m_ct_stereo_status>  (118) 
1

>  <s_m_source_file>  (118) 
/var/tmp/pbs.5076255.sched01/tmpgskxq70o/44i51uky9l.sdf

>  <i_m_source_file_index>  (118) 
18

>  <i_lp_mmshare_version>  (118) 
48012

>  <i_f3d_flags>  (118) 
0

>  <s_epik_input>  (118) 
W0NIMl0xW0NIMl1bQ0hdMVtDSDJdTihbQ0gyXVtDSDJdMilbQ0BIXShbQ0BdMyhbQ0BAXTI0NSlPW0NIM10pW0NIMl1jNmM1YyhjKFtPSF0pW2NIXVtjSF02KU9bQ0BIXTRDKD1PKVtDSDJdW0NIMl0z

>  <s_epik_cmdline>  (118) 
J2VwaWtfcHl0aG9uJywgJy1waHQnLCAnMi4wJywgJy1waCcsICc3LjAnLCAnLXRuJywgJzgnLCAnLW1hJywgJzIwMCcsICctaW1hZScsICc8aW5maWxlLm1hZT4nLCAnLW9tYWUnLCAnPG91dGZpbGUubWFlPic=

>  <r_epik_Ionization_Penalty>  (118) 
2.05362

>  <r_epik_Ionization_Penalty_Charging>  (118) 
2.05362

>  <r_epik_Ionization_Penalty_Neutral>  (118) 
4.16244e-10

>  <r_epik_State_Penalty>  (118) 
2.61286

>  <r_epik_Charging_Adjusted_Penalty>  (118) 
4.66648

>  <i_epik_Tot_Q>  (118) 
0

>  <i_epik_Tot_abs_Q>  (118) 
2

>  <s_lp_Force_Field>  (118) 
OPLS3e

>  <r_lp_Energy>  (118) 
76.4548

>  <b_lp_Chiralities_Consistent>  (118) 
1

>  <s_lp_Variant>  (118) 
38:0-3

>  <s_i_glide_gridfile>  (118) 
pfpi4k_grid

>  <i_i_glide_lignum>  (118) 
18

>  <i_i_glide_rotatable_bonds>  (118) 
3

>  <r_i_docking_score>  (118) 
-2.80665

>  <r_i_glide_ligand_efficiency>  (118) 
-0.107948

>  <r_i_glide_ligand_efficiency_sa>  (118) 
-0.319796

>  <r_i_glide_ligand_efficiency_ln>  (118) 
-0.659133

>  <r_i_glide_gscore>  (118) 
-2.80665

>  <r_i_glide_lipo>  (118) 
-0.160971

>  <r_i_glide_hbond>  (118) 
0

>  <r_i_glide_metal>  (118) 
-0

>  <r_i_glide_rewards>  (118) 
-0.985722

>  <r_i_glide_evdw>  (118) 
-17.8301

>  <r_i_glide_ecoul>  (118) 
-6.84567

>  <r_i_glide_erotb>  (118) 
0.302709

>  <r_i_glide_esite>  (118) 
-0.0443137

>  <r_i_glide_emodel>  (118) 
-32.2873

>  <r_i_glide_energy>  (118) 
-24.6757

>  <r_i_glide_einternal>  (118) 
0.00406091

>  <r_i_glide_intrahb_reward>  (118) 
-0

>  <i_i_glide_confnum>  (118) 
3

>  <i_i_glide_posenum>  (118) 
25

>  <r_i_glide_eff_state_penalty>  (118) 
0

>  <ligand_id>  (118) 
38

>  <original_smiles>  (118) 
COC12CCC(=O)C3Oc4c(O)ccc5c4C31CCN(CC1CC1)C2C5

>  <smiles>  (118) 
[H]c1c([H])c2c3c(c1[O-])OC1([H])C(=O)C([H])([H])C([H])([H])C4(OC([H])([H])[H])C31C([H])([H])C([H])([H])[N+]([H])(C([H])([H])C1([H])C([H])([H])C1([H])[H])C4([H])C2([H])[H]

$$$$
39:0:0
     RDKit          3D

 74 78  0  0  1  0  0  0  0  0999 V2000
    0.4219   -5.5663    6.7889 C   0  0  0  0  0  0  0  0  0  0  0  0
    0.5182   -5.4054    5.2589 C   0  0  2  0  0  0  0  0  0  0  0  0
    0.4385   -6.7886    4.5975 C   0  0  0  0  0  0  0  0  0  0  0  0
    1.8245   -7.0426    4.0164 C   0  0  1  0  0  0  0  0  0  0  0  0
    1.7281   -8.0288    3.0111 O   0  0  0  0  0  0  0  0  0  0  0  0
    2.2689   -5.6587    3.5021 C   0  0  1  0  0  0  0  0  0  0  0  0
    1.7383   -4.6687    4.5811 C   0  0  2  0  0  0  0  0  0  0  0  0
    2.8347   -3.9363    5.4300 C   0  0  2  0  0  0  0  0  0  0  0  0
    3.4032   -4.8657    6.5408 C   0  0  0  0  0  0  0  0  0  0  0  0
    2.2554   -2.6582    6.1044 C   0  0  0  0  0  0  0  0  0  0  0  0
    3.2818   -1.9562    7.0149 C   0  0  0  0  0  0  0  0  0  0  0  0
    4.6507   -1.7322    6.3455 C   0  0  0  0  0  0  0  0  0  0  0  0
    4.8466   -2.5009    5.0512 C   0  0  0  0  0  0  0  0  0  0  0  0
    4.0075   -3.4332    4.5488 C   0  0  0  0  0  0  0  0  0  0  0  0
    4.2305   -3.9909    3.1227 C   0  0  1  0  0  0  0  0  0  0  0  0
    3.7541   -5.4811    3.0001 C   0  0  1  0  0  0  0  0  0  0  0  0
    4.7595   -6.3594    3.8030 C   0  0  0  0  0  0  0  0  0  0  0  0
    3.9009   -6.0072    1.5379 C   0  0  0  0  0  0  0  0  0  0  0  0
    3.5596   -5.0603    0.3751 C   0  0  1  0  0  0  0  0  0  0  0  0
    2.1763   -5.0591    0.0841 O   0  0  0  0  0  0  0  0  0  0  0  0
    4.1356   -3.6231    0.5074 C   0  0  2  0  0  0  0  0  0  0  0  0
    5.6027   -3.4736   -0.0957 C   0  0  0  0  0  0  0  0  0  0  0  0
    6.6310   -4.4971    0.4594 C   0  0  0  0  0  0  0  0  0  0  0  0
    5.5561   -3.6827   -1.6344 C   0  0  0  0  0  0  0  0  0  0  0  0
    6.1955   -2.0594    0.1626 C   0  0  1  0  0  0  0  0  0  0  0  0
    5.6447   -1.0633   -0.6831 O   0  0  0  0  0  0  0  0  0  0  0  0
    6.0287   -1.6295    1.6156 C   0  0  0  0  0  0  0  0  0  0  0  0
    4.5526   -1.6135    2.0038 C   0  0  0  0  0  0  0  0  0  0  0  0
    3.8426   -2.9987    1.9309 C   0  0  2  0  0  0  0  0  0  0  0  0
    2.3526   -2.5939    2.0053 C   0  0  0  0  0  0  0  0  0  0  0  0
    1.1927   -6.2293    7.1801 H   0  0  0  0  0  0  0  0  0  0  0  0
   -0.5340   -6.0216    7.0548 H   0  0  0  0  0  0  0  0  0  0  0  0
    0.4604   -4.6239    7.3253 H   0  0  0  0  0  0  0  0  0  0  0  0
   -0.3784   -4.8574    4.9711 H   0  0  0  0  0  0  0  0  0  0  0  0
    0.1348   -7.5821    5.2829 H   0  0  0  0  0  0  0  0  0  0  0  0
   -0.3044   -6.7647    3.7987 H   0  0  0  0  0  0  0  0  0  0  0  0
    2.4773   -7.3975    4.8123 H   0  0  0  0  0  0  0  0  0  0  0  0
    1.5191   -8.8566    3.4188 H   0  0  0  0  0  0  0  0  0  0  0  0
    1.6327   -5.4925    2.6347 H   0  0  0  0  0  0  0  0  0  0  0  0
    1.2628   -3.8648    4.0295 H   0  0  0  0  0  0  0  0  0  0  0  0
    2.8741   -4.7473    7.4861 H   0  0  0  0  0  0  0  0  0  0  0  0
    4.4513   -4.6531    6.7587 H   0  0  0  0  0  0  0  0  0  0  0  0
    3.3345   -5.9220    6.2871 H   0  0  0  0  0  0  0  0  0  0  0  0
    1.9392   -1.9571    5.3321 H   0  0  0  0  0  0  0  0  0  0  0  0
    1.3593   -2.8635    6.6828 H   0  0  0  0  0  0  0  0  0  0  0  0
    2.8787   -0.9997    7.3476 H   0  0  0  0  0  0  0  0  0  0  0  0
    3.4221   -2.5322    7.9287 H   0  0  0  0  0  0  0  0  0  0  0  0
    4.7463   -0.6750    6.0960 H   0  0  0  0  0  0  0  0  0  0  0  0
    5.4613   -1.9693    7.0364 H   0  0  0  0  0  0  0  0  0  0  0  0
    5.7029   -2.1933    4.4746 H   0  0  0  0  0  0  0  0  0  0  0  0
    5.3127   -4.0404    3.0658 H   0  0  0  0  0  0  0  0  0  0  0  0
    5.7662   -6.2822    3.3864 H   0  0  0  0  0  0  0  0  0  0  0  0
    4.4988   -7.4178    3.7730 H   0  0  0  0  0  0  0  0  0  0  0  0
    4.8708   -6.0637    4.8380 H   0  0  0  0  0  0  0  0  0  0  0  0
    4.9271   -6.3250    1.3825 H   0  0  0  0  0  0  0  0  0  0  0  0
    3.3452   -6.9340    1.4073 H   0  0  0  0  0  0  0  0  0  0  0  0
    3.9688   -5.5340   -0.5127 H   0  0  0  0  0  0  0  0  0  0  0  0
    2.0872   -4.8759   -0.8421 H   0  0  0  0  0  0  0  0  0  0  0  0
    3.5459   -3.0212   -0.1851 H   0  0  0  0  0  0  0  0  0  0  0  0
    7.6389   -4.2642    0.1150 H   0  0  0  0  0  0  0  0  0  0  0  0
    6.4367   -5.5081    0.1046 H   0  0  0  0  0  0  0  0  0  0  0  0
    6.6792   -4.5203    1.5443 H   0  0  0  0  0  0  0  0  0  0  0  0
    6.5071   -3.4106   -2.0979 H   0  0  0  0  0  0  0  0  0  0  0  0
    4.7766   -3.0828   -2.1083 H   0  0  0  0  0  0  0  0  0  0  0  0
    5.3656   -4.7200   -1.9077 H   0  0  0  0  0  0  0  0  0  0  0  0
    7.2622   -2.0682   -0.0695 H   0  0  0  0  0  0  0  0  0  0  0  0
    4.7187   -0.9952   -0.4998 H   0  0  0  0  0  0  0  0  0  0  0  0
    6.5870   -2.2989    2.2647 H   0  0  0  0  0  0  0  0  0  0  0  0
    6.4650   -0.6438    1.7608 H   0  0  0  0  0  0  0  0  0  0  0  0
    4.4225   -1.1439    2.9732 H   0  0  0  0  0  0  0  0  0  0  0  0
    4.0525   -0.9148    1.3324 H   0  0  0  0  0  0  0  0  0  0  0  0
    2.0695   -1.9322    1.1849 H   0  0  0  0  0  0  0  0  0  0  0  0
    2.1181   -2.0587    2.9236 H   0  0  0  0  0  0  0  0  0  0  0  0
    1.6894   -3.4435    1.9407 H   0  0  0  0  0  0  0  0  0  0  0  0
  1  2  1  0
  1 31  1  0
  1 32  1  0
  1 33  1  0
  2  7  1  0
  2  3  1  0
  2 34  1  6
  3  4  1  0
  3 35  1  0
  3 36  1  0
  4  5  1  0
  4  6  1  0
  4 37  1  1
  5 38  1  0
  6 16  1  0
  6  7  1  0
  6 39  1  6
  7  8  1  0
  7 40  1  6
  8 14  1  0
  8  9  1  1
  8 10  1  0
  9 41  1  0
  9 42  1  0
  9 43  1  0
 10 11  1  0
 10 44  1  0
 10 45  1  0
 11 12  1  0
 11 46  1  0
 11 47  1  0
 12 13  1  0
 12 48  1  0
 12 49  1  0
 13 14  2  0
 13 50  1  0
 14 15  1  0
 15 29  1  0
 15 16  1  0
 15 51  1  1
 16 17  1  1
 16 18  1  0
 17 52  1  0
 17 53  1  0
 17 54  1  0
 18 19  1  0
 18 55  1  0
 18 56  1  0
 19 20  1  0
 19 21  1  0
 19 57  1  6
 20 58  1  0
 21 29  1  0
 21 22  1  0
 21 59  1  6
 22 23  1  0
 22 24  1  0
 22 25  1  0
 23 60  1  0
 23 61  1  0
 23 62  1  0
 24 63  1  0
 24 64  1  0
 24 65  1  0
 25 26  1  0
 25 27  1  0
 25 66  1  6
 26 67  1  0
 27 28  1  0
 27 68  1  0
 27 69  1  0
 28 29  1  0
 28 70  1  0
 28 71  1  0
 29 30  1  6
 30 72  1  0
 30 73  1  0
 30 74  1  0
M  END
>  <i_m_ct_stereo_status>  (119) 
1

>  <s_m_source_file>  (119) 
/var/tmp/pbs.5076255.sched01/tmpgskxq70o/44i51uky9l.sdf

>  <i_m_source_file_index>  (119) 
19

>  <i_lp_mmshare_version>  (119) 
48012

>  <i_f3d_flags>  (119) 
0

>  <s_epik_input>  (119) 
W0NIM11bQ0BASF0xW0NIMl1bQ0BASF0oW09IXSlbQ0BASF0oW0NAQEhdMVtDQF0yM1tDSDNdKVtDQF00KFtDSDNdKVtDQEhdKEMzPVtDSF1bQ0gyXVtDSDJdW0NIMl0yKVtDQF01KFtDSDNdKVtDQEhdKFtDQEBIXShbQ0gyXTQpW09IXSlDKFtDSDNdKShbQ0gzXSlbQ0BASF0oW09IXSlbQ0gyXVtDSDJdNQ==

>  <s_epik_cmdline>  (119) 
J2VwaWtfcHl0aG9uJywgJy1waHQnLCAnMi4wJywgJy1waCcsICc3LjAnLCAnLXRuJywgJzgnLCAnLW1hJywgJzIwMCcsICctaW1hZScsICc8aW5maWxlLm1hZT4nLCAnLW9tYWUnLCAnPG91dGZpbGUubWFlPic=

>  <r_lp_tautomer_probability>  (119) 
1

>  <r_epik_Ionization_Penalty>  (119) 
5.80827e-06

>  <r_epik_Ionization_Penalty_Charging>  (119) 
0

>  <r_epik_Ionization_Penalty_Neutral>  (119) 
5.80827e-06

>  <r_epik_State_Penalty>  (119) 
-0

>  <r_epik_Charging_Adjusted_Penalty>  (119) 
0

>  <i_epik_Tot_Q>  (119) 
0

>  <i_epik_Tot_abs_Q>  (119) 
0

>  <s_lp_Force_Field>  (119) 
OPLS3e

>  <r_lp_Energy>  (119) 
93.2537

>  <b_lp_Chiralities_Consistent>  (119) 
1

>  <s_lp_Variant>  (119) 
39:0-1

>  <s_i_glide_gridfile>  (119) 
pfpi4k_grid

>  <i_i_glide_lignum>  (119) 
19

>  <i_i_glide_rotatable_bonds>  (119) 
3

>  <r_i_docking_score>  (119) 
-3.00515

>  <r_i_glide_ligand_efficiency>  (119) 
-0.100172

>  <r_i_glide_ligand_efficiency_sa>  (119) 
-0.311256

>  <r_i_glide_ligand_efficiency_ln>  (119) 
-0.682802

>  <r_i_glide_gscore>  (119) 
-3.00515

>  <r_i_glide_lipo>  (119) 
-0.565254

>  <r_i_glide_hbond>  (119) 
-0.0777521

>  <r_i_glide_metal>  (119) 
-0

>  <r_i_glide_rewards>  (119) 
-0.568388

>  <r_i_glide_evdw>  (119) 
-23.3957

>  <r_i_glide_ecoul>  (119) 
-4.1598

>  <r_i_glide_erotb>  (119) 
0

>  <r_i_glide_esite>  (119) 
0

>  <r_i_glide_emodel>  (119) 
-32.4639

>  <r_i_glide_energy>  (119) 
-27.5555

>  <r_i_glide_einternal>  (119) 
0.994984

>  <r_i_glide_intrahb_reward>  (119) 
-0

>  <i_i_glide_confnum>  (119) 
1

>  <i_i_glide_posenum>  (119) 
8

>  <r_i_glide_eff_state_penalty>  (119) 
0

>  <ligand_id>  (119) 
39

>  <original_smiles>  (119) 
CC1CC(O)C2C1C1(C)CCCC=C1C1C2(C)CC(O)C2C(C)(C)C(O)CCC21C

>  <smiles>  (119) 
[H]OC1([H])C([H])([H])C([H])(C([H])([H])[H])C2([H])C1([H])C1(C([H])([H])[H])C([H])([H])C([H])(O[H])C3([H])C(C([H])([H])[H])(C([H])([H])[H])C([H])(O[H])C([H])([H])C([H])([H])C3(C([H])([H])[H])C1([H])C1=C([H])C([H])([H])C([H])([H])C([H])([H])C12C([H])([H])[H]

$$$$
39:0:1
     RDKit          3D

 74 78  0  0  1  0  0  0  0  0999 V2000
    2.4638   -5.4228    7.0655 C   0  0  0  0  0  0  0  0  0  0  0  0
    2.0981   -5.4198    5.5692 C   0  0  2  0  0  0  0  0  0  0  0  0
    2.2223   -6.8449    5.0095 C   0  0  0  0  0  0  0  0  0  0  0  0
    3.4245   -6.8157    4.0722 C   0  0  1  0  0  0  0  0  0  0  0  0
    3.3189   -7.8925    3.1695 O   0  0  0  0  0  0  0  0  0  0  0  0
    3.3256   -5.4295    3.4039 C   0  0  1  0  0  0  0  0  0  0  0  0
    2.8542   -4.4844    4.5445 C   0  0  2  0  0  0  0  0  0  0  0  0
    3.8976   -3.4111    5.0061 C   0  0  2  0  0  0  0  0  0  0  0  0
    4.9670   -4.0441    5.9371 C   0  0  0  0  0  0  0  0  0  0  0  0
    3.1982   -2.2503    5.7663 C   0  0  0  0  0  0  0  0  0  0  0  0
    4.2021   -1.2193    6.3096 C   0  0  0  0  0  0  0  0  0  0  0  0
    5.2163   -0.7370    5.2582 C   0  0  0  0  0  0  0  0  0  0  0  0
    5.2439   -1.5681    3.9954 C   0  0  0  0  0  0  0  0  0  0  0  0
    4.6160   -2.7451    3.8041 C   0  0  0  0  0  0  0  0  0  0  0  0
    4.6060   -3.3918    2.4085 C   0  0  1  0  0  0  0  0  0  0  0  0
    4.5192   -4.9533    2.4959 C   0  0  1  0  0  0  0  0  0  0  0  0
    5.8932   -5.4736    3.0044 C   0  0  0  0  0  0  0  0  0  0  0  0
    4.4048   -5.5894    1.0896 C   0  0  0  0  0  0  0  0  0  0  0  0
    3.5351   -4.8801    0.0552 C   0  0  1  0  0  0  0  0  0  0  0  0
    2.1804   -5.2796    0.1169 O   0  0  0  0  0  0  0  0  0  0  0  0
    3.7041   -3.3500   -0.0750 C   0  0  2  0  0  0  0  0  0  0  0  0
    4.8559   -2.9280   -1.0917 C   0  0  0  0  0  0  0  0  0  0  0  0
    6.2085   -3.5950   -0.8061 C   0  0  0  0  0  0  0  0  0  0  0  0
    4.4938   -3.3338   -2.5488 C   0  0  0  0  0  0  0  0  0  0  0  0
    5.1155   -1.4044   -1.0814 C   0  0  1  0  0  0  0  0  0  0  0  0
    4.1364   -0.7208   -1.8225 O   0  0  0  0  0  0  0  0  0  0  0  0
    5.2323   -0.8588    0.3418 C   0  0  0  0  0  0  0  0  0  0  0  0
    3.9637   -1.1534    1.1310 C   0  0  0  0  0  0  0  0  0  0  0  0
    3.6733   -2.6648    1.3391 C   0  0  2  0  0  0  0  0  0  0  0  0
    2.2179   -2.6392    1.8377 C   0  0  0  0  0  0  0  0  0  0  0  0
    3.4592   -5.8280    7.2449 H   0  0  0  0  0  0  0  0  0  0  0  0
    1.7709   -6.0658    7.6133 H   0  0  0  0  0  0  0  0  0  0  0  0
    2.3895   -4.4446    7.5291 H   0  0  0  0  0  0  0  0  0  0  0  0
    1.0438   -5.1455    5.5273 H   0  0  0  0  0  0  0  0  0  0  0  0
    2.3313   -7.6066    5.7843 H   0  0  0  0  0  0  0  0  0  0  0  0
    1.3182   -7.0914    4.4497 H   0  0  0  0  0  0  0  0  0  0  0  0
    4.3303   -6.9102    4.6680 H   0  0  0  0  0  0  0  0  0  0  0  0
    4.1202   -7.9319    2.6633 H   0  0  0  0  0  0  0  0  0  0  0  0
    2.4610   -5.5334    2.7502 H   0  0  0  0  0  0  0  0  0  0  0  0
    2.0487   -3.8962    4.1181 H   0  0  0  0  0  0  0  0  0  0  0  0
    4.6961   -3.9523    6.9891 H   0  0  0  0  0  0  0  0  0  0  0  0
    5.9392   -3.5582    5.8344 H   0  0  0  0  0  0  0  0  0  0  0  0
    5.1163   -5.1096    5.7601 H   0  0  0  0  0  0  0  0  0  0  0  0
    2.5131   -1.7448    5.0876 H   0  0  0  0  0  0  0  0  0  0  0  0
    2.5771   -2.6058    6.5851 H   0  0  0  0  0  0  0  0  0  0  0  0
    3.6620   -0.3615    6.7073 H   0  0  0  0  0  0  0  0  0  0  0  0
    4.7372   -1.6348    7.1614 H   0  0  0  0  0  0  0  0  0  0  0  0
    4.9625    0.2802    4.9589 H   0  0  0  0  0  0  0  0  0  0  0  0
    6.2203   -0.7058    5.6872 H   0  0  0  0  0  0  0  0  0  0  0  0
    5.8031   -1.1287    3.1852 H   0  0  0  0  0  0  0  0  0  0  0  0
    5.6084   -3.1863    2.0483 H   0  0  0  0  0  0  0  0  0  0  0  0
    6.6933   -5.1993    2.3098 H   0  0  0  0  0  0  0  0  0  0  0  0
    5.9248   -6.5621    3.0873 H   0  0  0  0  0  0  0  0  0  0  0  0
    6.1960   -5.0449    3.9516 H   0  0  0  0  0  0  0  0  0  0  0  0
    5.3942   -5.6773    0.6612 H   0  0  0  0  0  0  0  0  0  0  0  0
    4.0826   -6.6265    1.1407 H   0  0  0  0  0  0  0  0  0  0  0  0
    3.8922   -5.3211   -0.8585 H   0  0  0  0  0  0  0  0  0  0  0  0
    1.8454   -5.2073   -0.7712 H   0  0  0  0  0  0  0  0  0  0  0  0
    2.8116   -3.0021   -0.5948 H   0  0  0  0  0  0  0  0  0  0  0  0
    6.9879   -3.2080   -1.4600 H   0  0  0  0  0  0  0  0  0  0  0  0
    6.1421   -4.6625   -1.0211 H   0  0  0  0  0  0  0  0  0  0  0  0
    6.5605   -3.4676    0.2096 H   0  0  0  0  0  0  0  0  0  0  0  0
    5.1680   -2.8683   -3.2728 H   0  0  0  0  0  0  0  0  0  0  0  0
    3.4768   -3.0268   -2.8099 H   0  0  0  0  0  0  0  0  0  0  0  0
    4.5681   -4.4079   -2.7148 H   0  0  0  0  0  0  0  0  0  0  0  0
    6.0436   -1.2019   -1.6089 H   0  0  0  0  0  0  0  0  0  0  0  0
    4.5120    0.0504   -2.2267 H   0  0  0  0  0  0  0  0  0  0  0  0
    6.0968   -1.2852    0.8448 H   0  0  0  0  0  0  0  0  0  0  0  0
    5.3967    0.2097    0.3336 H   0  0  0  0  0  0  0  0  0  0  0  0
    3.9603   -0.6096    2.0703 H   0  0  0  0  0  0  0  0  0  0  0  0
    3.1376   -0.6973    0.5811 H   0  0  0  0  0  0  0  0  0  0  0  0
    1.5681   -2.1670    1.1066 H   0  0  0  0  0  0  0  0  0  0  0  0
    2.1038   -2.0733    2.7594 H   0  0  0  0  0  0  0  0  0  0  0  0
    1.8189   -3.6304    1.9895 H   0  0  0  0  0  0  0  0  0  0  0  0
  1  2  1  0
  1 31  1  0
  1 32  1  0
  1 33  1  0
  2  7  1  0
  2  3  1  0
  2 34  1  1
  3  4  1  0
  3 35  1  0
  3 36  1  0
  4  5  1  0
  4  6  1  0
  4 37  1  1
  5 38  1  0
  6 16  1  0
  6  7  1  0
  6 39  1  6
  7  8  1  0
  7 40  1  6
  8 14  1  0
  8  9  1  1
  8 10  1  0
  9 41  1  0
  9 42  1  0
  9 43  1  0
 10 11  1  0
 10 44  1  0
 10 45  1  0
 11 12  1  0
 11 46  1  0
 11 47  1  0
 12 13  1  0
 12 48  1  0
 12 49  1  0
 13 14  2  0
 13 50  1  0
 14 15  1  0
 15 29  1  0
 15 16  1  0
 15 51  1  6
 16 17  1  1
 16 18  1  0
 17 52  1  0
 17 53  1  0
 17 54  1  0
 18 19  1  0
 18 55  1  0
 18 56  1  0
 19 20  1  0
 19 21  1  0
 19 57  1  6
 20 58  1  0
 21 29  1  0
 21 22  1  0
 21 59  1  6
 22 23  1  0
 22 24  1  0
 22 25  1  0
 23 60  1  0
 23 61  1  0
 23 62  1  0
 24 63  1  0
 24 64  1  0
 24 65  1  0
 25 26  1  0
 25 27  1  0
 25 66  1  6
 26 67  1  0
 27 28  1  0
 27 68  1  0
 27 69  1  0
 28 29  1  0
 28 70  1  0
 28 71  1  0
 29 30  1  1
 30 72  1  0
 30 73  1  0
 30 74  1  0
M  END
>  <i_m_ct_stereo_status>  (120) 
1

>  <s_m_source_file>  (120) 
/var/tmp/pbs.5076255.sched01/tmpgskxq70o/44i51uky9l.sdf

>  <i_m_source_file_index>  (120) 
19

>  <i_lp_mmshare_version>  (120) 
48012

>  <i_f3d_flags>  (120) 
0

>  <s_epik_input>  (120) 
W0NIM11bQ0BASF0xW0NIMl1bQ0BASF0oW09IXSlbQ0BASF0oW0NAQEhdMVtDQF0yM1tDSDNdKVtDQF00KFtDSDNdKVtDQEhdKEMzPVtDSF1bQ0gyXVtDSDJdW0NIMl0yKVtDQF01KFtDSDNdKVtDQEhdKFtDQEBIXShbQ0gyXTQpW09IXSlDKFtDSDNdKShbQ0gzXSlbQ0BASF0oW09IXSlbQ0gyXVtDSDJdNQ==

>  <s_epik_cmdline>  (120) 
J2VwaWtfcHl0aG9uJywgJy1waHQnLCAnMi4wJywgJy1waCcsICc3LjAnLCAnLXRuJywgJzgnLCAnLW1hJywgJzIwMCcsICctaW1hZScsICc8aW5maWxlLm1hZT4nLCAnLW9tYWUnLCAnPG91dGZpbGUubWFlPic=

>  <r_lp_tautomer_probability>  (120) 
1

>  <r_epik_Ionization_Penalty>  (120) 
5.80827e-06

>  <r_epik_Ionization_Penalty_Charging>  (120) 
0

>  <r_epik_Ionization_Penalty_Neutral>  (120) 
5.80827e-06

>  <r_epik_State_Penalty>  (120) 
-0

>  <r_epik_Charging_Adjusted_Penalty>  (120) 
0

>  <i_epik_Tot_Q>  (120) 
0

>  <i_epik_Tot_abs_Q>  (120) 
0

>  <s_lp_Force_Field>  (120) 
OPLS3e

>  <r_lp_Energy>  (120) 
93.2537

>  <b_lp_Chiralities_Consistent>  (120) 
1

>  <s_lp_Variant>  (120) 
39:0-1

>  <s_i_glide_gridfile>  (120) 
pfpi4k_grid

>  <i_i_glide_lignum>  (120) 
19

>  <i_i_glide_rotatable_bonds>  (120) 
3

>  <r_i_docking_score>  (120) 
-2.38527

>  <r_i_glide_ligand_efficiency>  (120) 
-0.0795089

>  <r_i_glide_ligand_efficiency_sa>  (120) 
-0.247053

>  <r_i_glide_ligand_efficiency_ln>  (120) 
-0.541958

>  <r_i_glide_gscore>  (120) 
-2.38527

>  <r_i_glide_lipo>  (120) 
-0.446088

>  <r_i_glide_hbond>  (120) 
-0.0530296

>  <r_i_glide_metal>  (120) 
-0

>  <r_i_glide_rewards>  (120) 
-0.568388

>  <r_i_glide_evdw>  (120) 
-21.3804

>  <r_i_glide_ecoul>  (120) 
-1.65826

>  <r_i_glide_erotb>  (120) 
0

>  <r_i_glide_esite>  (120) 
0

>  <r_i_glide_emodel>  (120) 
-25.6872

>  <r_i_glide_energy>  (120) 
-23.0387

>  <r_i_glide_einternal>  (120) 
2.20644

>  <r_i_glide_intrahb_reward>  (120) 
-0

>  <i_i_glide_confnum>  (120) 
1

>  <i_i_glide_posenum>  (120) 
39

>  <r_i_glide_eff_state_penalty>  (120) 
0

>  <ligand_id>  (120) 
39

>  <original_smiles>  (120) 
CC1CC(O)C2C1C1(C)CCCC=C1C1C2(C)CC(O)C2C(C)(C)C(O)CCC21C

>  <smiles>  (120) 
[H]OC1([H])C([H])([H])C([H])(C([H])([H])[H])C2([H])C1([H])C1(C([H])([H])[H])C([H])([H])C([H])(O[H])C3([H])C(C([H])([H])[H])(C([H])([H])[H])C([H])(O[H])C([H])([H])C([H])([H])C3(C([H])([H])[H])C1([H])C1=C([H])C([H])([H])C([H])([H])C([H])([H])C12C([H])([H])[H]

$$$$
39:0:2
     RDKit          3D

 74 78  0  0  1  0  0  0  0  0999 V2000
    4.6486   -2.2412   -3.6932 C   0  0  0  0  0  0  0  0  0  0  0  0
    4.1417   -3.4942   -3.0142 C   0  0  2  0  0  0  0  0  0  0  0  0
    2.6248   -3.4391   -3.0949 C   0  0  0  0  0  0  0  0  0  0  0  0
    2.2487   -3.2646   -1.6340 C   0  0  1  0  0  0  0  0  0  0  0  0
    0.9263   -3.8571   -1.5514 O   0  0  0  0  0  0  0  0  0  0  0  0
    3.2459   -3.9873   -0.7465 C   0  0  1  0  0  0  0  0  0  0  0  0
    4.5544   -3.8057   -1.5337 C   0  0  2  0  0  0  0  0  0  0  0  0
    5.6339   -2.9596   -0.8005 C   0  0  2  0  0  0  0  0  0  0  0  0
    5.3373   -1.4302   -0.8726 C   0  0  0  0  0  0  0  0  0  0  0  0
    7.0612   -3.2455   -1.3527 C   0  0  0  0  0  0  0  0  0  0  0  0
    8.1762   -2.4838   -0.7038 C   0  0  0  0  0  0  0  0  0  0  0  0
    8.0709   -2.4369    0.7844 C   0  0  0  0  0  0  0  0  0  0  0  0
    6.7790   -3.0004    1.3569 C   0  0  0  0  0  0  0  0  0  0  0  0
    5.7247   -3.3608    0.6753 C   0  0  0  0  0  0  0  0  0  0  0  0
    4.6358   -4.1488    1.4245 C   0  0  1  0  0  0  0  0  0  0  0  0
    3.2670   -3.8179    0.8250 C   0  0  1  0  0  0  0  0  0  0  0  0
    2.8549   -2.3805    1.2463 C   0  0  0  0  0  0  0  0  0  0  0  0
    2.2021   -4.6916    1.5073 C   0  0  0  0  0  0  0  0  0  0  0  0
    2.4729   -6.1493    1.9377 C   0  0  1  0  0  0  0  0  0  0  0  0
    2.2252   -7.0309    0.9040 O   0  0  0  0  0  0  0  0  0  0  0  0
    3.8337   -6.4204    2.5501 C   0  0  2  0  0  0  0  0  0  0  0  0
    3.7288   -6.3265    4.0979 C   0  0  0  0  0  0  0  0  0  0  0  0
    3.0815   -5.0064    4.6001 C   0  0  0  0  0  0  0  0  0  0  0  0
    2.8228   -7.4789    4.6264 C   0  0  0  0  0  0  0  0  0  0  0  0
    5.1274   -6.4489    4.7400 C   0  0  1  0  0  0  0  0  0  0  0  0
    5.6072   -7.7908    4.7115 O   0  0  0  0  0  0  0  0  0  0  0  0
    6.1465   -5.5374    4.0548 C   0  0  0  0  0  0  0  0  0  0  0  0
    6.2803   -5.8839    2.5738 C   0  0  0  0  0  0  0  0  0  0  0  0
    4.9781   -5.6753    1.7540 C   0  0  2  0  0  0  0  0  0  0  0  0
    5.2779   -6.4559    0.4612 C   0  0  0  0  0  0  0  0  0  0  0  0
    4.3037   -1.3014   -3.2741 H   0  0  0  0  0  0  0  0  0  0  0  0
    4.3360   -2.2698   -4.7215 H   0  0  0  0  0  0  0  0  0  0  0  0
    5.7245   -2.2741   -3.6660 H   0  0  0  0  0  0  0  0  0  0  0  0
    4.4988   -4.3320   -3.6232 H   0  0  0  0  0  0  0  0  0  0  0  0
    2.2619   -2.6218   -3.7208 H   0  0  0  0  0  0  0  0  0  0  0  0
    2.2081   -4.2966   -3.5787 H   0  0  0  0  0  0  0  0  0  0  0  0
    2.2789   -2.2132   -1.4366 H   0  0  0  0  0  0  0  0  0  0  0  0
    0.6629   -4.0727   -2.4373 H   0  0  0  0  0  0  0  0  0  0  0  0
    2.9833   -5.0505   -0.8316 H   0  0  0  0  0  0  0  0  0  0  0  0
    5.0220   -4.7845   -1.5948 H   0  0  0  0  0  0  0  0  0  0  0  0
    5.8369   -0.9559   -1.7145 H   0  0  0  0  0  0  0  0  0  0  0  0
    5.6732   -0.8903    0.0157 H   0  0  0  0  0  0  0  0  0  0  0  0
    4.2770   -1.2181   -0.9931 H   0  0  0  0  0  0  0  0  0  0  0  0
    7.2913   -4.2309   -1.0606 H   0  0  0  0  0  0  0  0  0  0  0  0
    7.1469   -3.1146   -2.4175 H   0  0  0  0  0  0  0  0  0  0  0  0
    9.1728   -2.7726   -1.0142 H   0  0  0  0  0  0  0  0  0  0  0  0
    8.0268   -1.4809   -1.0071 H   0  0  0  0  0  0  0  0  0  0  0  0
    8.8957   -3.0063    1.2119 H   0  0  0  0  0  0  0  0  0  0  0  0
    8.1744   -1.4087    1.1239 H   0  0  0  0  0  0  0  0  0  0  0  0
    6.7407   -3.1933    2.4185 H   0  0  0  0  0  0  0  0  0  0  0  0
    4.6164   -3.6870    2.4048 H   0  0  0  0  0  0  0  0  0  0  0  0
    2.7714   -2.3083    2.3299 H   0  0  0  0  0  0  0  0  0  0  0  0
    1.8721   -2.1026    0.8607 H   0  0  0  0  0  0  0  0  0  0  0  0
    3.5708   -1.6214    0.9583 H   0  0  0  0  0  0  0  0  0  0  0  0
    1.7601   -4.1902    2.3643 H   0  0  0  0  0  0  0  0  0  0  0  0
    1.4590   -4.8431    0.7304 H   0  0  0  0  0  0  0  0  0  0  0  0
    1.6447   -6.4586    2.5497 H   0  0  0  0  0  0  0  0  0  0  0  0
    2.8263   -6.7209    0.2271 H   0  0  0  0  0  0  0  0  0  0  0  0
    4.0091   -7.4910    2.3618 H   0  0  0  0  0  0  0  0  0  0  0  0
    3.1716   -4.9235    5.6799 H   0  0  0  0  0  0  0  0  0  0  0  0
    2.0114   -4.9530    4.3882 H   0  0  0  0  0  0  0  0  0  0  0  0
    3.5467   -4.1216    4.1777 H   0  0  0  0  0  0  0  0  0  0  0  0
    2.8929   -7.5641    5.7069 H   0  0  0  0  0  0  0  0  0  0  0  0
    3.1073   -8.4438    4.2067 H   0  0  0  0  0  0  0  0  0  0  0  0
    1.7648   -7.3491    4.3959 H   0  0  0  0  0  0  0  0  0  0  0  0
    5.0480   -6.1743    5.7841 H   0  0  0  0  0  0  0  0  0  0  0  0
    5.6494   -8.0808    3.8310 H   0  0  0  0  0  0  0  0  0  0  0  0
    5.8564   -4.4928    4.1784 H   0  0  0  0  0  0  0  0  0  0  0  0
    7.1101   -5.6518    4.5417 H   0  0  0  0  0  0  0  0  0  0  0  0
    7.1246   -5.3668    2.1266 H   0  0  0  0  0  0  0  0  0  0  0  0
    6.5734   -6.9338    2.5097 H   0  0  0  0  0  0  0  0  0  0  0  0
    5.5013   -7.5062    0.6564 H   0  0  0  0  0  0  0  0  0  0  0  0
    6.1569   -6.0446   -0.0319 H   0  0  0  0  0  0  0  0  0  0  0  0
    4.4781   -6.4680   -0.2743 H   0  0  0  0  0  0  0  0  0  0  0  0
  1  2  1  0
  1 31  1  0
  1 32  1  0
  1 33  1  0
  2  7  1  0
  2  3  1  0
  2 34  1  6
  3  4  1  0
  3 35  1  0
  3 36  1  0
  4  5  1  0
  4  6  1  0
  4 37  1  1
  5 38  1  0
  6 16  1  0
  6  7  1  0
  6 39  1  1
  7  8  1  0
  7 40  1  6
  8 14  1  0
  8  9  1  1
  8 10  1  0
  9 41  1  0
  9 42  1  0
  9 43  1  0
 10 11  1  0
 10 44  1  0
 10 45  1  0
 11 12  1  0
 11 46  1  0
 11 47  1  0
 12 13  1  0
 12 48  1  0
 12 49  1  0
 13 14  2  0
 13 50  1  0
 14 15  1  0
 15 29  1  0
 15 16  1  0
 15 51  1  1
 16 17  1  6
 16 18  1  0
 17 52  1  0
 17 53  1  0
 17 54  1  0
 18 19  1  0
 18 55  1  0
 18 56  1  0
 19 20  1  0
 19 21  1  0
 19 57  1  1
 20 58  1  0
 21 29  1  0
 21 22  1  0
 21 59  1  1
 22 23  1  0
 22 24  1  0
 22 25  1  0
 23 60  1  0
 23 61  1  0
 23 62  1  0
 24 63  1  0
 24 64  1  0
 24 65  1  0
 25 26  1  0
 25 27  1  0
 25 66  1  1
 26 67  1  0
 27 28  1  0
 27 68  1  0
 27 69  1  0
 28 29  1  0
 28 70  1  0
 28 71  1  0
 29 30  1  6
 30 72  1  0
 30 73  1  0
 30 74  1  0
M  END
>  <i_m_ct_stereo_status>  (121) 
1

>  <s_m_source_file>  (121) 
/var/tmp/pbs.5076255.sched01/tmpgskxq70o/44i51uky9l.sdf

>  <i_m_source_file_index>  (121) 
19

>  <i_lp_mmshare_version>  (121) 
48012

>  <i_f3d_flags>  (121) 
0

>  <s_epik_input>  (121) 
W0NIM11bQ0BASF0xW0NIMl1bQ0BASF0oW09IXSlbQ0BASF0oW0NAQEhdMVtDQF0yM1tDSDNdKVtDQF00KFtDSDNdKVtDQEhdKEMzPVtDSF1bQ0gyXVtDSDJdW0NIMl0yKVtDQF01KFtDSDNdKVtDQEhdKFtDQEBIXShbQ0gyXTQpW09IXSlDKFtDSDNdKShbQ0gzXSlbQ0BASF0oW09IXSlbQ0gyXVtDSDJdNQ==

>  <s_epik_cmdline>  (121) 
J2VwaWtfcHl0aG9uJywgJy1waHQnLCAnMi4wJywgJy1waCcsICc3LjAnLCAnLXRuJywgJzgnLCAnLW1hJywgJzIwMCcsICctaW1hZScsICc8aW5maWxlLm1hZT4nLCAnLW9tYWUnLCAnPG91dGZpbGUubWFlPic=

>  <r_lp_tautomer_probability>  (121) 
1

>  <r_epik_Ionization_Penalty>  (121) 
5.80827e-06

>  <r_epik_Ionization_Penalty_Charging>  (121) 
0

>  <r_epik_Ionization_Penalty_Neutral>  (121) 
5.80827e-06

>  <r_epik_State_Penalty>  (121) 
-0

>  <r_epik_Charging_Adjusted_Penalty>  (121) 
0

>  <i_epik_Tot_Q>  (121) 
0

>  <i_epik_Tot_abs_Q>  (121) 
0

>  <s_lp_Force_Field>  (121) 
OPLS3e

>  <r_lp_Energy>  (121) 
93.2537

>  <b_lp_Chiralities_Consistent>  (121) 
1

>  <s_lp_Variant>  (121) 
39:0-1

>  <s_i_glide_gridfile>  (121) 
pfpi4k_grid

>  <i_i_glide_lignum>  (121) 
19

>  <i_i_glide_rotatable_bonds>  (121) 
3

>  <r_i_docking_score>  (121) 
-2.38311

>  <r_i_glide_ligand_efficiency>  (121) 
-0.0794369

>  <r_i_glide_ligand_efficiency_sa>  (121) 
-0.246829

>  <r_i_glide_ligand_efficiency_ln>  (121) 
-0.541468

>  <r_i_glide_gscore>  (121) 
-2.38311

>  <r_i_glide_lipo>  (121) 
-0.883165

>  <r_i_glide_hbond>  (121) 
-0.355942

>  <r_i_glide_metal>  (121) 
-0

>  <r_i_glide_rewards>  (121) 
-0.568388

>  <r_i_glide_evdw>  (121) 
4.54281

>  <r_i_glide_ecoul>  (121) 
-5.35168

>  <r_i_glide_erotb>  (121) 
0

>  <r_i_glide_esite>  (121) 
0

>  <r_i_glide_emodel>  (121) 
-0.716851

>  <r_i_glide_energy>  (121) 
-0.808866

>  <r_i_glide_einternal>  (121) 
1.35777

>  <r_i_glide_intrahb_reward>  (121) 
-0

>  <i_i_glide_confnum>  (121) 
1

>  <i_i_glide_posenum>  (121) 
38

>  <r_i_glide_eff_state_penalty>  (121) 
0

>  <ligand_id>  (121) 
39

>  <original_smiles>  (121) 
CC1CC(O)C2C1C1(C)CCCC=C1C1C2(C)CC(O)C2C(C)(C)C(O)CCC21C

>  <smiles>  (121) 
[H]OC1([H])C([H])([H])C([H])(C([H])([H])[H])C2([H])C1([H])C1(C([H])([H])[H])C([H])([H])C([H])(O[H])C3([H])C(C([H])([H])[H])(C([H])([H])[H])C([H])(O[H])C([H])([H])C([H])([H])C3(C([H])([H])[H])C1([H])C1=C([H])C([H])([H])C([H])([H])C([H])([H])C12C([H])([H])[H]

$$$$
40:0:0
     RDKit          3D

 32 35  0  0  1  0  0  0  0  0999 V2000
    5.2234   -1.0167    2.3798 C   0  0  0  0  0  0  0  0  0  0  0  0
    4.1895   -1.1095    1.4342 C   0  0  0  0  0  0  0  0  0  0  0  0
    2.9600   -0.4647    1.6534 C   0  0  0  0  0  0  0  0  0  0  0  0
    2.7274    0.2983    2.8300 C   0  0  0  0  0  0  0  0  0  0  0  0
    3.7878    0.3919    3.7703 C   0  0  0  0  0  0  0  0  0  0  0  0
    5.0178   -0.2649    3.5477 C   0  0  0  0  0  0  0  0  0  0  0  0
    3.5951    1.1731    5.0258 C   0  0  1  0  0  0  0  0  0  0  0  0
    3.8204    2.6571    5.1343 C   0  0  0  0  0  0  0  0  0  0  0  0
    2.4200    2.1079    5.0549 C   0  0  1  0  0  0  0  0  0  0  0  0
    1.6354    2.2646    3.7648 C   0  0  2  0  0  0  0  0  0  0  0  0
    0.2941    3.0010    4.0298 C   0  0  0  0  0  0  0  0  0  0  0  0
   -0.6347    2.9155    2.8853 N   0  0  0  0  0  0  0  0  0  0  0  0
   -0.8457    1.5193    2.4586 C   0  0  0  0  0  0  0  0  0  0  0  0
    0.4924    0.9353    2.0002 C   0  0  0  0  0  0  0  0  0  0  0  0
    1.4899    0.9644    3.0749 N   0  0  0  0  0  0  0  0  0  0  0  0
    6.1615   -1.5223    2.2073 H   0  0  0  0  0  0  0  0  0  0  0  0
    4.3360   -1.6837    0.5332 H   0  0  0  0  0  0  0  0  0  0  0  0
    2.2087   -0.5658    0.8878 H   0  0  0  0  0  0  0  0  0  0  0  0
    5.8120   -0.2006    4.2766 H   0  0  0  0  0  0  0  0  0  0  0  0
    3.8194    0.5765    5.9036 H   0  0  0  0  0  0  0  0  0  0  0  0
    4.1248    3.0568    6.0993 H   0  0  0  0  0  0  0  0  0  0  0  0
    4.2119    3.1692    4.2562 H   0  0  0  0  0  0  0  0  0  0  0  0
    1.8391    2.0509    5.9759 H   0  0  0  0  0  0  0  0  0  0  0  0
    2.2254    2.8968    3.0941 H   0  0  0  0  0  0  0  0  0  0  0  0
   -0.2134    2.5823    4.9021 H   0  0  0  0  0  0  0  0  0  0  0  0
    0.4826    4.0527    4.2544 H   0  0  0  0  0  0  0  0  0  0  0  0
   -1.5258    3.3123    3.1355 H   0  0  0  0  0  0  0  0  0  0  0  0
   -1.2415    0.9391    3.2924 H   0  0  0  0  0  0  0  0  0  0  0  0
   -1.5927    1.4677    1.6643 H   0  0  0  0  0  0  0  0  0  0  0  0
    0.3191   -0.0813    1.6489 H   0  0  0  0  0  0  0  0  0  0  0  0
    0.8597    1.5110    1.1503 H   0  0  0  0  0  0  0  0  0  0  0  0
   -0.2437    3.4427    2.0923 H   0  0  0  0  0  0  0  0  0  0  0  0
  1  6  2  0
  1  2  1  0
  1 16  1  0
  2  3  2  0
  2 17  1  0
  3  4  1  0
  3 18  1  0
  4 15  1  0
  4  5  2  0
  5  6  1  0
  5  7  1  0
  6 19  1  0
  7  9  1  0
  7  8  1  0
  7 20  1  1
  8  9  1  0
  8 21  1  0
  8 22  1  0
  9 10  1  0
  9 23  1  1
 10 15  1  0
 10 11  1  0
 10 24  1  6
 11 12  1  0
 11 25  1  0
 11 26  1  0
 12 13  1  0
 12 27  1  0
 12 32  1  0
 13 14  1  0
 13 28  1  0
 13 29  1  0
 14 15  1  0
 14 30  1  0
 14 31  1  0
M  CHG  1  12   1
M  END
>  <i_m_ct_stereo_status>  (122) 
1

>  <s_m_source_file>  (122) 
/var/tmp/pbs.5076255.sched01/tmpgskxq70o/44i51uky9l.sdf

>  <i_m_source_file_index>  (122) 
20

>  <i_lp_mmshare_version>  (122) 
48012

>  <i_f3d_flags>  (122) 
0

>  <s_epik_input>  (122) 
W2NIXTFbY0hdW2NIXVtjSF1jKGMxMilbQ0BASF0zW0NAQEhdKFtDSDJdMylbQ0BIXTROMltDSDJdW0NIMl1bTkhdW0NIMl00

>  <s_epik_cmdline>  (122) 
J2VwaWtfcHl0aG9uJywgJy1waHQnLCAnMi4wJywgJy1waCcsICc3LjAnLCAnLXRuJywgJzgnLCAnLW1hJywgJzIwMCcsICctaW1hZScsICc8aW5maWxlLm1hZT4nLCAnLW9tYWUnLCAnPG91dGZpbGUubWFlPic=

>  <r_epik_Ionization_Penalty>  (122) 
0.00899838

>  <r_epik_Ionization_Penalty_Charging>  (122) 
0.00868522

>  <r_epik_Ionization_Penalty_Neutral>  (122) 
0.000313158

>  <r_epik_State_Penalty>  (122) 
0.00655779

>  <r_epik_Charging_Adjusted_Penalty>  (122) 
0.015243

>  <i_epik_Tot_Q>  (122) 
1

>  <i_epik_Tot_abs_Q>  (122) 
1

>  <s_lp_Force_Field>  (122) 
OPLS3e

>  <r_lp_Energy>  (122) 
35.122

>  <b_lp_Chiralities_Consistent>  (122) 
1

>  <s_lp_Variant>  (122) 
40:0-1

>  <s_i_glide_gridfile>  (122) 
pfpi4k_grid

>  <i_i_glide_lignum>  (122) 
20

>  <i_i_glide_rotatable_bonds>  (122) 
0

>  <r_i_docking_score>  (122) 
-4.20768

>  <r_i_glide_ligand_efficiency>  (122) 
-0.280512

>  <r_i_glide_ligand_efficiency_sa>  (122) 
-0.691802

>  <r_i_glide_ligand_efficiency_ln>  (122) 
-1.13474

>  <r_i_glide_gscore>  (122) 
-4.20768

>  <r_i_glide_lipo>  (122) 
-0.252495

>  <r_i_glide_hbond>  (122) 
-0.2

>  <r_i_glide_metal>  (122) 
-0

>  <r_i_glide_rewards>  (122) 
-2.03668

>  <r_i_glide_evdw>  (122) 
-15.1028

>  <r_i_glide_ecoul>  (122) 
-5.6673

>  <r_i_glide_erotb>  (122) 
0

>  <r_i_glide_esite>  (122) 
-0.113271

>  <r_i_glide_emodel>  (122) 
-28.3431

>  <r_i_glide_energy>  (122) 
-20.7701

>  <r_i_glide_einternal>  (122) 
0

>  <r_i_glide_intrahb_reward>  (122) 
-0

>  <i_i_glide_confnum>  (122) 
2

>  <i_i_glide_posenum>  (122) 
4

>  <r_i_glide_eff_state_penalty>  (122) 
0

>  <ligand_id>  (122) 
40

>  <original_smiles>  (122) 
c1ccc2c(c1)C1CC1C1CNCCN21

>  <smiles>  (122) 
[H]c1c([H])c([H])c2c(c1[H])N1C([H])([H])C([H])([H])[N+]([H])([H])C([H])([H])C1([H])C1([H])C([H])([H])C21[H]

$$$$
40:0:1
     RDKit          3D

 32 35  0  0  1  0  0  0  0  0999 V2000
   -2.1114    3.1589    5.4911 C   0  0  0  0  0  0  0  0  0  0  0  0
   -1.4389    3.6903    4.3796 C   0  0  0  0  0  0  0  0  0  0  0  0
   -0.4456    2.9449    3.7210 C   0  0  0  0  0  0  0  0  0  0  0  0
   -0.1000    1.6388    4.1515 C   0  0  0  0  0  0  0  0  0  0  0  0
   -0.7984    1.1102    5.2721 C   0  0  0  0  0  0  0  0  0  0  0  0
   -1.7855    1.8693    5.9349 C   0  0  0  0  0  0  0  0  0  0  0  0
   -0.4661   -0.2507    5.7757 C   0  0  1  0  0  0  0  0  0  0  0  0
   -1.0846   -1.5087    5.2347 C   0  0  0  0  0  0  0  0  0  0  0  0
    0.3279   -1.1274    4.8500 C   0  0  1  0  0  0  0  0  0  0  0  0
    0.6123   -0.5852    3.4555 C   0  0  2  0  0  0  0  0  0  0  0  0
    1.6886   -1.4446    2.7345 C   0  0  0  0  0  0  0  0  0  0  0  0
    2.2120   -0.7984    1.5099 N   0  0  0  0  0  0  0  0  0  0  0  0
    2.6696    0.5738    1.7758 C   0  0  0  0  0  0  0  0  0  0  0  0
    1.4792    1.4145    2.2599 C   0  0  0  0  0  0  0  0  0  0  0  0
    0.9018    0.8606    3.4933 N   0  0  0  0  0  0  0  0  0  0  0  0
   -2.8706    3.7344    5.9979 H   0  0  0  0  0  0  0  0  0  0  0  0
   -1.6750    4.6753    4.0172 H   0  0  0  0  0  0  0  0  0  0  0  0
    0.0313    3.4152    2.8768 H   0  0  0  0  0  0  0  0  0  0  0  0
   -2.2981    1.4709    6.7972 H   0  0  0  0  0  0  0  0  0  0  0  0
   -0.2163   -0.2354    6.8316 H   0  0  0  0  0  0  0  0  0  0  0  0
   -1.1761   -2.3687    5.8952 H   0  0  0  0  0  0  0  0  0  0  0  0
   -1.8564   -1.4048    4.4737 H   0  0  0  0  0  0  0  0  0  0  0  0
    1.1502   -1.6454    5.3416 H   0  0  0  0  0  0  0  0  0  0  0  0
   -0.3116   -0.6541    2.8806 H   0  0  0  0  0  0  0  0  0  0  0  0
    2.5314   -1.6313    3.4006 H   0  0  0  0  0  0  0  0  0  0  0  0
    1.2745   -2.4197    2.4838 H   0  0  0  0  0  0  0  0  0  0  0  0
    2.9825   -1.3425    1.1507 H   0  0  0  0  0  0  0  0  0  0  0  0
    3.4455    0.5574    2.5410 H   0  0  0  0  0  0  0  0  0  0  0  0
    3.1146    0.9828    0.8759 H   0  0  0  0  0  0  0  0  0  0  0  0
    1.8277    2.4361    2.4187 H   0  0  0  0  0  0  0  0  0  0  0  0
    0.7096    1.4529    1.4826 H   0  0  0  0  0  0  0  0  0  0  0  0
    1.4980   -0.7484    0.7797 H   0  0  0  0  0  0  0  0  0  0  0  0
  1  6  2  0
  1  2  1  0
  1 16  1  0
  2  3  2  0
  2 17  1  0
  3  4  1  0
  3 18  1  0
  4 15  1  0
  4  5  2  0
  5  6  1  0
  5  7  1  0
  6 19  1  0
  7  9  1  0
  7  8  1  0
  7 20  1  1
  8  9  1  0
  8 21  1  0
  8 22  1  0
  9 10  1  0
  9 23  1  1
 10 15  1  0
 10 11  1  0
 10 24  1  6
 11 12  1  0
 11 25  1  0
 11 26  1  0
 12 13  1  0
 12 27  1  0
 12 32  1  0
 13 14  1  0
 13 28  1  0
 13 29  1  0
 14 15  1  0
 14 30  1  0
 14 31  1  0
M  CHG  1  12   1
M  END
>  <i_m_ct_stereo_status>  (123) 
1

>  <s_m_source_file>  (123) 
/var/tmp/pbs.5076255.sched01/tmpgskxq70o/44i51uky9l.sdf

>  <i_m_source_file_index>  (123) 
20

>  <i_lp_mmshare_version>  (123) 
48012

>  <i_f3d_flags>  (123) 
0

>  <s_epik_input>  (123) 
W2NIXTFbY0hdW2NIXVtjSF1jKGMxMilbQ0BASF0zW0NAQEhdKFtDSDJdMylbQ0BIXTROMltDSDJdW0NIMl1bTkhdW0NIMl00

>  <s_epik_cmdline>  (123) 
J2VwaWtfcHl0aG9uJywgJy1waHQnLCAnMi4wJywgJy1waCcsICc3LjAnLCAnLXRuJywgJzgnLCAnLW1hJywgJzIwMCcsICctaW1hZScsICc8aW5maWxlLm1hZT4nLCAnLW9tYWUnLCAnPG91dGZpbGUubWFlPic=

>  <r_epik_Ionization_Penalty>  (123) 
0.00899838

>  <r_epik_Ionization_Penalty_Charging>  (123) 
0.00868522

>  <r_epik_Ionization_Penalty_Neutral>  (123) 
0.000313158

>  <r_epik_State_Penalty>  (123) 
0.00655779

>  <r_epik_Charging_Adjusted_Penalty>  (123) 
0.015243

>  <i_epik_Tot_Q>  (123) 
1

>  <i_epik_Tot_abs_Q>  (123) 
1

>  <s_lp_Force_Field>  (123) 
OPLS3e

>  <r_lp_Energy>  (123) 
35.122

>  <b_lp_Chiralities_Consistent>  (123) 
1

>  <s_lp_Variant>  (123) 
40:0-1

>  <s_i_glide_gridfile>  (123) 
pfpi4k_grid

>  <i_i_glide_lignum>  (123) 
20

>  <i_i_glide_rotatable_bonds>  (123) 
0

>  <r_i_docking_score>  (123) 
-3.93765

>  <r_i_glide_ligand_efficiency>  (123) 
-0.26251

>  <r_i_glide_ligand_efficiency_sa>  (123) 
-0.647406

>  <r_i_glide_ligand_efficiency_ln>  (123) 
-1.06192

>  <r_i_glide_gscore>  (123) 
-3.93765

>  <r_i_glide_lipo>  (123) 
-0.0217341

>  <r_i_glide_hbond>  (123) 
-0.2

>  <r_i_glide_metal>  (123) 
-0

>  <r_i_glide_rewards>  (123) 
-2.03668

>  <r_i_glide_evdw>  (123) 
-16.4206

>  <r_i_glide_ecoul>  (123) 
-5.0451

>  <r_i_glide_erotb>  (123) 
0

>  <r_i_glide_esite>  (123) 
-0.101446

>  <r_i_glide_emodel>  (123) 
-28.5184

>  <r_i_glide_energy>  (123) 
-21.4657

>  <r_i_glide_einternal>  (123) 
0

>  <r_i_glide_intrahb_reward>  (123) 
-0

>  <i_i_glide_confnum>  (123) 
2

>  <i_i_glide_posenum>  (123) 
13

>  <r_i_glide_eff_state_penalty>  (123) 
0

>  <ligand_id>  (123) 
40

>  <original_smiles>  (123) 
c1ccc2c(c1)C1CC1C1CNCCN21

>  <smiles>  (123) 
[H]c1c([H])c([H])c2c(c1[H])N1C([H])([H])C([H])([H])[N+]([H])([H])C([H])([H])C1([H])C1([H])C([H])([H])C21[H]

$$$$
40:0:2
     RDKit          3D

 32 35  0  0  1  0  0  0  0  0999 V2000
   -1.6461    3.1862    8.1154 C   0  0  0  0  0  0  0  0  0  0  0  0
   -1.0289    4.1758    7.3349 C   0  0  0  0  0  0  0  0  0  0  0  0
   -0.3510    3.8322    6.1500 C   0  0  0  0  0  0  0  0  0  0  0  0
   -0.2680    2.4839    5.7164 C   0  0  0  0  0  0  0  0  0  0  0  0
   -0.9030    1.4919    6.5164 C   0  0  0  0  0  0  0  0  0  0  0  0
   -1.5775    1.8476    7.7037 C   0  0  0  0  0  0  0  0  0  0  0  0
   -0.8228    0.0591    6.1158 C   0  0  1  0  0  0  0  0  0  0  0  0
   -1.7863   -0.5904    5.1627 C   0  0  0  0  0  0  0  0  0  0  0  0
   -0.3992   -0.2185    4.7025 C   0  0  1  0  0  0  0  0  0  0  0  0
   -0.2164    0.9845    3.7904 C   0  0  2  0  0  0  0  0  0  0  0  0
    0.5210    0.5796    2.4838 C   0  0  0  0  0  0  0  0  0  0  0  0
    0.9973    1.7417    1.7141 N   0  0  0  0  0  0  0  0  0  0  0  0
    1.8140    2.6473    2.5380 C   0  0  0  0  0  0  0  0  0  0  0  0
    0.9380    3.1917    3.6785 C   0  0  0  0  0  0  0  0  0  0  0  0
    0.4112    2.1079    4.5174 N   0  0  0  0  0  0  0  0  0  0  0  0
   -2.1559    3.4558    9.0279 H   0  0  0  0  0  0  0  0  0  0  0  0
   -1.0748    5.2056    7.6488 H   0  0  0  0  0  0  0  0  0  0  0  0
    0.0941    4.6390    5.5889 H   0  0  0  0  0  0  0  0  0  0  0  0
   -2.0365    1.0978    8.3257 H   0  0  0  0  0  0  0  0  0  0  0  0
   -0.4274   -0.5604    6.9144 H   0  0  0  0  0  0  0  0  0  0  0  0
   -1.9883   -1.6533    5.2755 H   0  0  0  0  0  0  0  0  0  0  0  0
   -2.5999    0.0184    4.7801 H   0  0  0  0  0  0  0  0  0  0  0  0
    0.3426   -1.0122    4.6132 H   0  0  0  0  0  0  0  0  0  0  0  0
   -1.2110    1.3380    3.5037 H   0  0  0  0  0  0  0  0  0  0  0  0
    1.3859   -0.0510    2.7075 H   0  0  0  0  0  0  0  0  0  0  0  0
   -0.1390   -0.0160    1.8496 H   0  0  0  0  0  0  0  0  0  0  0  0
    1.5375    1.4049    0.9346 H   0  0  0  0  0  0  0  0  0  0  0  0
    2.6714    2.1092    2.9460 H   0  0  0  0  0  0  0  0  0  0  0  0
    2.2042    3.4657    1.9261 H   0  0  0  0  0  0  0  0  0  0  0  0
    1.5374    3.8911    4.2628 H   0  0  0  0  0  0  0  0  0  0  0  0
    0.1012    3.7540    3.2574 H   0  0  0  0  0  0  0  0  0  0  0  0
    0.2204    2.2924    1.3624 H   0  0  0  0  0  0  0  0  0  0  0  0
  1  6  2  0
  1  2  1  0
  1 16  1  0
  2  3  2  0
  2 17  1  0
  3  4  1  0
  3 18  1  0
  4 15  1  0
  4  5  2  0
  5  6  1  0
  5  7  1  0
  6 19  1  0
  7  9  1  0
  7  8  1  0
  7 20  1  1
  8  9  1  0
  8 21  1  0
  8 22  1  0
  9 10  1  0
  9 23  1  1
 10 15  1  0
 10 11  1  0
 10 24  1  6
 11 12  1  0
 11 25  1  0
 11 26  1  0
 12 13  1  0
 12 27  1  0
 12 32  1  0
 13 14  1  0
 13 28  1  0
 13 29  1  0
 14 15  1  0
 14 30  1  0
 14 31  1  0
M  CHG  1  12   1
M  END
>  <i_m_ct_stereo_status>  (124) 
1

>  <s_m_source_file>  (124) 
/var/tmp/pbs.5076255.sched01/tmpgskxq70o/44i51uky9l.sdf

>  <i_m_source_file_index>  (124) 
20

>  <i_lp_mmshare_version>  (124) 
48012

>  <i_f3d_flags>  (124) 
0

>  <s_epik_input>  (124) 
W2NIXTFbY0hdW2NIXVtjSF1jKGMxMilbQ0BASF0zW0NAQEhdKFtDSDJdMylbQ0BIXTROMltDSDJdW0NIMl1bTkhdW0NIMl00

>  <s_epik_cmdline>  (124) 
J2VwaWtfcHl0aG9uJywgJy1waHQnLCAnMi4wJywgJy1waCcsICc3LjAnLCAnLXRuJywgJzgnLCAnLW1hJywgJzIwMCcsICctaW1hZScsICc8aW5maWxlLm1hZT4nLCAnLW9tYWUnLCAnPG91dGZpbGUubWFlPic=

>  <r_epik_Ionization_Penalty>  (124) 
0.00899838

>  <r_epik_Ionization_Penalty_Charging>  (124) 
0.00868522

>  <r_epik_Ionization_Penalty_Neutral>  (124) 
0.000313158

>  <r_epik_State_Penalty>  (124) 
0.00655779

>  <r_epik_Charging_Adjusted_Penalty>  (124) 
0.015243

>  <i_epik_Tot_Q>  (124) 
1

>  <i_epik_Tot_abs_Q>  (124) 
1

>  <s_lp_Force_Field>  (124) 
OPLS3e

>  <r_lp_Energy>  (124) 
35.122

>  <b_lp_Chiralities_Consistent>  (124) 
1

>  <s_lp_Variant>  (124) 
40:0-1

>  <s_i_glide_gridfile>  (124) 
pfpi4k_grid

>  <i_i_glide_lignum>  (124) 
20

>  <i_i_glide_rotatable_bonds>  (124) 
0

>  <r_i_docking_score>  (124) 
-3.55203

>  <r_i_glide_ligand_efficiency>  (124) 
-0.236802

>  <r_i_glide_ligand_efficiency_sa>  (124) 
-0.584003

>  <r_i_glide_ligand_efficiency_ln>  (124) 
-0.957923

>  <r_i_glide_gscore>  (124) 
-3.55203

>  <r_i_glide_lipo>  (124) 
0

>  <r_i_glide_hbond>  (124) 
-0.102406

>  <r_i_glide_metal>  (124) 
-0

>  <r_i_glide_rewards>  (124) 
-2.03668

>  <r_i_glide_evdw>  (124) 
-15.3447

>  <r_i_glide_ecoul>  (124) 
-3.76275

>  <r_i_glide_erotb>  (124) 
0

>  <r_i_glide_esite>  (124) 
-0.0812999

>  <r_i_glide_emodel>  (124) 
-25.4538

>  <r_i_glide_energy>  (124) 
-19.1074

>  <r_i_glide_einternal>  (124) 
0

>  <r_i_glide_intrahb_reward>  (124) 
-0

>  <i_i_glide_confnum>  (124) 
2

>  <i_i_glide_posenum>  (124) 
17

>  <r_i_glide_eff_state_penalty>  (124) 
0

>  <ligand_id>  (124) 
40

>  <original_smiles>  (124) 
c1ccc2c(c1)C1CC1C1CNCCN21

>  <smiles>  (124) 
[H]c1c([H])c([H])c2c(c1[H])N1C([H])([H])C([H])([H])[N+]([H])([H])C([H])([H])C1([H])C1([H])C([H])([H])C21[H]

$$$$
40:1:0
     RDKit          3D

 31 34  0  0  1  0  0  0  0  0999 V2000
   -8.9372   -4.2712   -5.6675 C   0  0  0  0  0  0  0  0  0  0  0  0
   -7.7679   -4.8326   -5.1271 C   0  0  0  0  0  0  0  0  0  0  0  0
   -7.1240   -5.8972   -5.7813 C   0  0  0  0  0  0  0  0  0  0  0  0
   -7.6333   -6.4298   -6.9934 C   0  0  0  0  0  0  0  0  0  0  0  0
   -8.8061   -5.8417   -7.5371 C   0  0  0  0  0  0  0  0  0  0  0  0
   -9.4533   -4.7765   -6.8707 C   0  0  0  0  0  0  0  0  0  0  0  0
   -9.3914   -6.3795   -8.8053 C   0  0  1  0  0  0  0  0  0  0  0  0
   -8.5780   -6.5282  -10.0747 C   0  0  0  0  0  0  0  0  0  0  0  0
   -8.9240   -7.7357   -9.2404 C   0  0  1  0  0  0  0  0  0  0  0  0
   -7.8516   -8.4428   -8.4266 C   0  0  2  0  0  0  0  0  0  0  0  0
   -8.4334   -9.5085   -7.4637 C   0  0  0  0  0  0  0  0  0  0  0  0
   -7.3675  -10.2160   -6.7454 N   0  0  0  0  0  0  0  0  0  0  0  0
   -6.5152   -9.2698   -6.0237 C   0  0  0  0  0  0  0  0  0  0  0  0
   -5.9241   -8.2525   -7.0157 C   0  0  0  0  0  0  0  0  0  0  0  0
   -7.0038   -7.5137   -7.6649 N   0  0  0  0  0  0  0  0  0  0  0  0
   -9.4431   -3.4727   -5.1452 H   0  0  0  0  0  0  0  0  0  0  0  0
   -7.3708   -4.4578   -4.1940 H   0  0  0  0  0  0  0  0  0  0  0  0
   -6.2357   -6.3001   -5.3219 H   0  0  0  0  0  0  0  0  0  0  0  0
  -10.3660   -4.3577   -7.2690 H   0  0  0  0  0  0  0  0  0  0  0  0
  -10.4444   -6.1362   -8.9126 H   0  0  0  0  0  0  0  0  0  0  0  0
   -9.0943   -6.4524  -11.0294 H   0  0  0  0  0  0  0  0  0  0  0  0
   -7.5436   -6.1880  -10.0771 H   0  0  0  0  0  0  0  0  0  0  0  0
   -9.6771   -8.3929   -9.6664 H   0  0  0  0  0  0  0  0  0  0  0  0
   -7.2094   -8.9643   -9.1426 H   0  0  0  0  0  0  0  0  0  0  0  0
   -9.1026   -9.0485   -6.7415 H   0  0  0  0  0  0  0  0  0  0  0  0
   -9.0222  -10.2392   -8.0188 H   0  0  0  0  0  0  0  0  0  0  0  0
   -7.7782  -10.8551   -6.0821 H   0  0  0  0  0  0  0  0  0  0  0  0
   -7.0850   -8.7596   -5.2478 H   0  0  0  0  0  0  0  0  0  0  0  0
   -5.7131   -9.8149   -5.5233 H   0  0  0  0  0  0  0  0  0  0  0  0
   -5.1930   -7.5926   -6.5511 H   0  0  0  0  0  0  0  0  0  0  0  0
   -5.3713   -8.7953   -7.7852 H   0  0  0  0  0  0  0  0  0  0  0  0
  1  6  2  0
  1  2  1  0
  1 16  1  0
  2  3  2  0
  2 17  1  0
  3  4  1  0
  3 18  1  0
  4 15  1  0
  4  5  2  0
  5  6  1  0
  5  7  1  0
  6 19  1  0
  7  9  1  0
  7  8  1  0
  7 20  1  6
  8  9  1  0
  8 21  1  0
  8 22  1  0
  9 10  1  0
  9 23  1  6
 10 15  1  0
 10 11  1  0
 10 24  1  6
 11 12  1  0
 11 25  1  0
 11 26  1  0
 12 13  1  0
 12 27  1  0
 13 14  1  0
 13 28  1  0
 13 29  1  0
 14 15  1  0
 14 30  1  0
 14 31  1  0
M  END
>  <i_m_ct_stereo_status>  (125) 
1

>  <s_m_source_file>  (125) 
/var/tmp/pbs.5076255.sched01/tmpgskxq70o/44i51uky9l.sdf

>  <i_m_source_file_index>  (125) 
21

>  <i_lp_mmshare_version>  (125) 
48012

>  <i_f3d_flags>  (125) 
0

>  <s_epik_input>  (125) 
W2NIXTFbY0hdW2NIXVtjSF1jKGMxMilbQ0BASF0zW0NAQEhdKFtDSDJdMylbQ0BIXTROMltDSDJdW0NIMl1bTkhdW0NIMl00

>  <s_epik_cmdline>  (125) 
J2VwaWtfcHl0aG9uJywgJy1waHQnLCAnMi4wJywgJy1waCcsICc3LjAnLCAnLXRuJywgJzgnLCAnLW1hJywgJzIwMCcsICctaW1hZScsICc8aW5maWxlLm1hZT4nLCAnLW9tYWUnLCAnPG91dGZpbGUubWFlPic=

>  <r_epik_Ionization_Penalty>  (125) 
2.50935

>  <r_epik_Ionization_Penalty_Charging>  (125) 
0

>  <r_epik_Ionization_Penalty_Neutral>  (125) 
2.50935

>  <r_epik_State_Penalty>  (125) 
2.67164

>  <r_epik_Charging_Adjusted_Penalty>  (125) 
2.67164

>  <i_epik_Tot_Q>  (125) 
0

>  <i_epik_Tot_abs_Q>  (125) 
0

>  <s_lp_Force_Field>  (125) 
OPLS3e

>  <r_lp_Energy>  (125) 
32.6753

>  <b_lp_Chiralities_Consistent>  (125) 
1

>  <s_lp_Variant>  (125) 
40:0-2

>  <s_i_glide_gridfile>  (125) 
pfpi4k_grid

>  <i_i_glide_lignum>  (125) 
21

>  <i_i_glide_rotatable_bonds>  (125) 
0

>  <r_i_docking_score>  (125) 
-6.4844

>  <r_i_glide_ligand_efficiency>  (125) 
-0.432294

>  <r_i_glide_ligand_efficiency_sa>  (125) 
-1.06613

>  <r_i_glide_ligand_efficiency_ln>  (125) 
-1.74874

>  <r_i_glide_gscore>  (125) 
-6.4844

>  <r_i_glide_lipo>  (125) 
-2.57745

>  <r_i_glide_hbond>  (125) 
0

>  <r_i_glide_metal>  (125) 
-0

>  <r_i_glide_rewards>  (125) 
-2.70214

>  <r_i_glide_evdw>  (125) 
-23.9044

>  <r_i_glide_ecoul>  (125) 
-0.0638927

>  <r_i_glide_erotb>  (125) 
0

>  <r_i_glide_esite>  (125) 
0

>  <r_i_glide_emodel>  (125) 
-33.3662

>  <r_i_glide_energy>  (125) 
-23.9683

>  <r_i_glide_einternal>  (125) 
0

>  <r_i_glide_intrahb_reward>  (125) 
-0

>  <i_i_glide_confnum>  (125) 
1

>  <i_i_glide_posenum>  (125) 
7

>  <r_i_glide_eff_state_penalty>  (125) 
0

>  <ligand_id>  (125) 
40

>  <original_smiles>  (125) 
c1ccc2c(c1)C1CC1C1CNCCN21

>  <smiles>  (125) 
[H]c1c([H])c([H])c2c(c1[H])N1C([H])([H])C([H])([H])N([H])C([H])([H])C1([H])C1([H])C([H])([H])C21[H]

$$$$
40:1:1
     RDKit          3D

 31 34  0  0  1  0  0  0  0  0999 V2000
   -9.0252   -3.7807   -6.5513 C   0  0  0  0  0  0  0  0  0  0  0  0
  -10.0553   -4.4587   -7.2312 C   0  0  0  0  0  0  0  0  0  0  0  0
   -9.9000   -5.8114   -7.5797 C   0  0  0  0  0  0  0  0  0  0  0  0
   -8.7172   -6.5235   -7.2474 C   0  0  0  0  0  0  0  0  0  0  0  0
   -7.7010   -5.8381   -6.5266 C   0  0  0  0  0  0  0  0  0  0  0  0
   -7.8527   -4.4723   -6.2001 C   0  0  0  0  0  0  0  0  0  0  0  0
   -6.4582   -6.5562   -6.1482 C   0  0  1  0  0  0  0  0  0  0  0  0
   -6.4240   -7.8502   -5.3873 C   0  0  0  0  0  0  0  0  0  0  0  0
   -6.1829   -7.8512   -6.8575 C   0  0  1  0  0  0  0  0  0  0  0  0
   -7.2290   -8.4113   -7.7931 C   0  0  2  0  0  0  0  0  0  0  0  0
   -6.9258   -8.1256   -9.2649 C   0  0  0  0  0  0  0  0  0  0  0  0
   -7.9049   -8.7396  -10.1619 N   0  0  0  0  0  0  0  0  0  0  0  0
   -9.2451   -8.2471   -9.8568 C   0  0  0  0  0  0  0  0  0  0  0  0
   -9.5543   -8.5761   -8.3876 C   0  0  0  0  0  0  0  0  0  0  0  0
   -8.5729   -7.9149   -7.5332 N   0  0  0  0  0  0  0  0  0  0  0  0
   -9.1391   -2.7358   -6.3097 H   0  0  0  0  0  0  0  0  0  0  0  0
  -10.9753   -3.9525   -7.4742 H   0  0  0  0  0  0  0  0  0  0  0  0
  -10.7346   -6.2969   -8.0648 H   0  0  0  0  0  0  0  0  0  0  0  0
   -7.0691   -3.9510   -5.6752 H   0  0  0  0  0  0  0  0  0  0  0  0
   -5.6488   -5.8663   -5.9168 H   0  0  0  0  0  0  0  0  0  0  0  0
   -5.5570   -8.0470   -4.7609 H   0  0  0  0  0  0  0  0  0  0  0  0
   -7.3643   -8.2677   -5.0488 H   0  0  0  0  0  0  0  0  0  0  0  0
   -5.1485   -8.0487   -7.1361 H   0  0  0  0  0  0  0  0  0  0  0  0
   -7.2415   -9.4969   -7.6601 H   0  0  0  0  0  0  0  0  0  0  0  0
   -6.9118   -7.0620   -9.4688 H   0  0  0  0  0  0  0  0  0  0  0  0
   -5.9347   -8.5123   -9.4822 H   0  0  0  0  0  0  0  0  0  0  0  0
   -7.6608   -8.4850  -11.1095 H   0  0  0  0  0  0  0  0  0  0  0  0
   -9.3112   -7.1751  -10.0393 H   0  0  0  0  0  0  0  0  0  0  0  0
   -9.9629   -8.7344  -10.5175 H   0  0  0  0  0  0  0  0  0  0  0  0
  -10.5797   -8.3440   -8.1151 H   0  0  0  0  0  0  0  0  0  0  0  0
   -9.4518   -9.6538   -8.2448 H   0  0  0  0  0  0  0  0  0  0  0  0
  1  6  2  0
  1  2  1  0
  1 16  1  0
  2  3  2  0
  2 17  1  0
  3  4  1  0
  3 18  1  0
  4 15  1  0
  4  5  2  0
  5  6  1  0
  5  7  1  0
  6 19  1  0
  7  9  1  0
  7  8  1  0
  7 20  1  1
  8  9  1  0
  8 21  1  0
  8 22  1  0
  9 10  1  0
  9 23  1  1
 10 15  1  0
 10 11  1  0
 10 24  1  6
 11 12  1  0
 11 25  1  0
 11 26  1  0
 12 13  1  0
 12 27  1  0
 13 14  1  0
 13 28  1  0
 13 29  1  0
 14 15  1  0
 14 30  1  0
 14 31  1  0
M  END
>  <i_m_ct_stereo_status>  (126) 
1

>  <s_m_source_file>  (126) 
/var/tmp/pbs.5076255.sched01/tmpgskxq70o/44i51uky9l.sdf

>  <i_m_source_file_index>  (126) 
21

>  <i_lp_mmshare_version>  (126) 
48012

>  <i_f3d_flags>  (126) 
0

>  <s_epik_input>  (126) 
W2NIXTFbY0hdW2NIXVtjSF1jKGMxMilbQ0BASF0zW0NAQEhdKFtDSDJdMylbQ0BIXTROMltDSDJdW0NIMl1bTkhdW0NIMl00

>  <s_epik_cmdline>  (126) 
J2VwaWtfcHl0aG9uJywgJy1waHQnLCAnMi4wJywgJy1waCcsICc3LjAnLCAnLXRuJywgJzgnLCAnLW1hJywgJzIwMCcsICctaW1hZScsICc8aW5maWxlLm1hZT4nLCAnLW9tYWUnLCAnPG91dGZpbGUubWFlPic=

>  <r_epik_Ionization_Penalty>  (126) 
2.50935

>  <r_epik_Ionization_Penalty_Charging>  (126) 
0

>  <r_epik_Ionization_Penalty_Neutral>  (126) 
2.50935

>  <r_epik_State_Penalty>  (126) 
2.67164

>  <r_epik_Charging_Adjusted_Penalty>  (126) 
2.67164

>  <i_epik_Tot_Q>  (126) 
0

>  <i_epik_Tot_abs_Q>  (126) 
0

>  <s_lp_Force_Field>  (126) 
OPLS3e

>  <r_lp_Energy>  (126) 
32.6753

>  <b_lp_Chiralities_Consistent>  (126) 
1

>  <s_lp_Variant>  (126) 
40:0-2

>  <s_i_glide_gridfile>  (126) 
pfpi4k_grid

>  <i_i_glide_lignum>  (126) 
21

>  <i_i_glide_rotatable_bonds>  (126) 
0

>  <r_i_docking_score>  (126) 
-5.57481

>  <r_i_glide_ligand_efficiency>  (126) 
-0.371654

>  <r_i_glide_ligand_efficiency_sa>  (126) 
-0.916578

>  <r_i_glide_ligand_efficiency_ln>  (126) 
-1.50343

>  <r_i_glide_gscore>  (126) 
-5.57481

>  <r_i_glide_lipo>  (126) 
-2.11198

>  <r_i_glide_hbond>  (126) 
0

>  <r_i_glide_metal>  (126) 
-0

>  <r_i_glide_rewards>  (126) 
-2.81897

>  <r_i_glide_evdw>  (126) 
-13.1942

>  <r_i_glide_ecoul>  (126) 
0.105634

>  <r_i_glide_erotb>  (126) 
0

>  <r_i_glide_esite>  (126) 
0

>  <r_i_glide_emodel>  (126) 
-21.0601

>  <r_i_glide_energy>  (126) 
-13.0885

>  <r_i_glide_einternal>  (126) 
0

>  <r_i_glide_intrahb_reward>  (126) 
-0

>  <i_i_glide_confnum>  (126) 
1

>  <i_i_glide_posenum>  (126) 
27

>  <r_i_glide_eff_state_penalty>  (126) 
0

>  <ligand_id>  (126) 
40

>  <original_smiles>  (126) 
c1ccc2c(c1)C1CC1C1CNCCN21

>  <smiles>  (126) 
[H]c1c([H])c([H])c2c(c1[H])N1C([H])([H])C([H])([H])N([H])C([H])([H])C1([H])C1([H])C([H])([H])C21[H]

$$$$
40:1:2
     RDKit          3D

 31 34  0  0  1  0  0  0  0  0999 V2000
   -9.0390   -4.4717   -7.8984 C   0  0  0  0  0  0  0  0  0  0  0  0
   -9.7399   -5.5929   -8.3756 C   0  0  0  0  0  0  0  0  0  0  0  0
   -9.3185   -6.8909   -8.0262 C   0  0  0  0  0  0  0  0  0  0  0  0
   -8.1863   -7.0942   -7.1984 C   0  0  0  0  0  0  0  0  0  0  0  0
   -7.5100   -5.9528   -6.6999 C   0  0  0  0  0  0  0  0  0  0  0  0
   -7.9383   -4.6519   -7.0474 C   0  0  0  0  0  0  0  0  0  0  0  0
   -6.2916   -6.1142   -5.8587 C   0  0  1  0  0  0  0  0  0  0  0  0
   -6.2936   -6.9444   -4.6131 C   0  0  0  0  0  0  0  0  0  0  0  0
   -5.6422   -7.4658   -5.8575 C   0  0  1  0  0  0  0  0  0  0  0  0
   -6.3047   -8.5980   -6.6200 C   0  0  2  0  0  0  0  0  0  0  0  0
   -5.6455   -8.8511   -7.9806 C   0  0  0  0  0  0  0  0  0  0  0  0
   -6.2630   -9.9987   -8.6565 N   0  0  0  0  0  0  0  0  0  0  0  0
   -7.6899   -9.7718   -8.8537 C   0  0  0  0  0  0  0  0  0  0  0  0
   -8.3336   -9.5673   -7.4761 C   0  0  0  0  0  0  0  0  0  0  0  0
   -7.7431   -8.3931   -6.8349 N   0  0  0  0  0  0  0  0  0  0  0  0
   -9.3366   -3.4753   -8.1836 H   0  0  0  0  0  0  0  0  0  0  0  0
  -10.6016   -5.4666   -9.0158 H   0  0  0  0  0  0  0  0  0  0  0  0
   -9.8908   -7.7162   -8.4167 H   0  0  0  0  0  0  0  0  0  0  0  0
   -7.3824   -3.7985   -6.7053 H   0  0  0  0  0  0  0  0  0  0  0  0
   -5.6737   -5.2230   -5.8411 H   0  0  0  0  0  0  0  0  0  0  0  0
   -5.6287   -6.6606   -3.8032 H   0  0  0  0  0  0  0  0  0  0  0  0
   -7.2316   -7.4113   -4.3254 H   0  0  0  0  0  0  0  0  0  0  0  0
   -4.5536   -7.4919   -5.8325 H   0  0  0  0  0  0  0  0  0  0  0  0
   -6.1841   -9.5020   -6.0193 H   0  0  0  0  0  0  0  0  0  0  0  0
   -5.7047   -7.9660   -8.6182 H   0  0  0  0  0  0  0  0  0  0  0  0
   -4.5895   -9.0706   -7.8349 H   0  0  0  0  0  0  0  0  0  0  0  0
   -5.8456  -10.0674   -9.5709 H   0  0  0  0  0  0  0  0  0  0  0  0
   -7.8581   -8.9113   -9.5041 H   0  0  0  0  0  0  0  0  0  0  0  0
   -8.1234  -10.6421   -9.3509 H   0  0  0  0  0  0  0  0  0  0  0  0
   -9.4178   -9.5131   -7.5276 H   0  0  0  0  0  0  0  0  0  0  0  0
   -8.1126  -10.4358   -6.8564 H   0  0  0  0  0  0  0  0  0  0  0  0
  1  6  2  0
  1  2  1  0
  1 16  1  0
  2  3  2  0
  2 17  1  0
  3  4  1  0
  3 18  1  0
  4 15  1  0
  4  5  2  0
  5  6  1  0
  5  7  1  0
  6 19  1  0
  7  9  1  0
  7  8  1  0
  7 20  1  1
  8  9  1  0
  8 21  1  0
  8 22  1  0
  9 10  1  0
  9 23  1  1
 10 15  1  0
 10 11  1  0
 10 24  1  1
 11 12  1  0
 11 25  1  0
 11 26  1  0
 12 13  1  0
 12 27  1  0
 13 14  1  0
 13 28  1  0
 13 29  1  0
 14 15  1  0
 14 30  1  0
 14 31  1  0
M  END
>  <i_m_ct_stereo_status>  (127) 
1

>  <s_m_source_file>  (127) 
/var/tmp/pbs.5076255.sched01/tmpgskxq70o/44i51uky9l.sdf

>  <i_m_source_file_index>  (127) 
21

>  <i_lp_mmshare_version>  (127) 
48012

>  <i_f3d_flags>  (127) 
0

>  <s_epik_input>  (127) 
W2NIXTFbY0hdW2NIXVtjSF1jKGMxMilbQ0BASF0zW0NAQEhdKFtDSDJdMylbQ0BIXTROMltDSDJdW0NIMl1bTkhdW0NIMl00

>  <s_epik_cmdline>  (127) 
J2VwaWtfcHl0aG9uJywgJy1waHQnLCAnMi4wJywgJy1waCcsICc3LjAnLCAnLXRuJywgJzgnLCAnLW1hJywgJzIwMCcsICctaW1hZScsICc8aW5maWxlLm1hZT4nLCAnLW9tYWUnLCAnPG91dGZpbGUubWFlPic=

>  <r_epik_Ionization_Penalty>  (127) 
2.50935

>  <r_epik_Ionization_Penalty_Charging>  (127) 
0

>  <r_epik_Ionization_Penalty_Neutral>  (127) 
2.50935

>  <r_epik_State_Penalty>  (127) 
2.67164

>  <r_epik_Charging_Adjusted_Penalty>  (127) 
2.67164

>  <i_epik_Tot_Q>  (127) 
0

>  <i_epik_Tot_abs_Q>  (127) 
0

>  <s_lp_Force_Field>  (127) 
OPLS3e

>  <r_lp_Energy>  (127) 
32.6753

>  <b_lp_Chiralities_Consistent>  (127) 
1

>  <s_lp_Variant>  (127) 
40:0-2

>  <s_i_glide_gridfile>  (127) 
pfpi4k_grid

>  <i_i_glide_lignum>  (127) 
21

>  <i_i_glide_rotatable_bonds>  (127) 
0

>  <r_i_docking_score>  (127) 
-5.30743

>  <r_i_glide_ligand_efficiency>  (127) 
-0.353829

>  <r_i_glide_ligand_efficiency_sa>  (127) 
-0.872617

>  <r_i_glide_ligand_efficiency_ln>  (127) 
-1.43133

>  <r_i_glide_gscore>  (127) 
-5.30743

>  <r_i_glide_lipo>  (127) 
-2.03562

>  <r_i_glide_hbond>  (127) 
0

>  <r_i_glide_metal>  (127) 
-0

>  <r_i_glide_rewards>  (127) 
-2.72627

>  <r_i_glide_evdw>  (127) 
-12.9331

>  <r_i_glide_ecoul>  (127) 
0.674071

>  <r_i_glide_erotb>  (127) 
0

>  <r_i_glide_esite>  (127) 
0

>  <r_i_glide_emodel>  (127) 
-19.8394

>  <r_i_glide_energy>  (127) 
-12.2591

>  <r_i_glide_einternal>  (127) 
0

>  <r_i_glide_intrahb_reward>  (127) 
-0

>  <i_i_glide_confnum>  (127) 
2

>  <i_i_glide_posenum>  (127) 
2

>  <r_i_glide_eff_state_penalty>  (127) 
0

>  <ligand_id>  (127) 
40

>  <original_smiles>  (127) 
c1ccc2c(c1)C1CC1C1CNCCN21

>  <smiles>  (127) 
[H]c1c([H])c([H])c2c(c1[H])N1C([H])([H])C([H])([H])N([H])C([H])([H])C1([H])C1([H])C([H])([H])C21[H]

$$$$
42:0:0
     RDKit          3D

 73 80  0  0  1  0  0  0  0  0999 V2000
    5.1705   -5.5644   -0.2169 C   0  0  0  0  0  0  0  0  0  0  0  0
    5.8378   -6.3225    0.6715 C   0  0  0  0  0  0  0  0  0  0  0  0
    5.3239   -7.5544    1.4228 C   0  0  0  0  0  0  0  0  0  0  0  0
    3.8569   -7.8277    1.2912 N   0  0  1  0  0  0  0  0  0  0  0  0
    3.4199   -9.2329    1.5740 C   0  0  0  0  0  0  0  0  0  0  0  0
    3.9800   -9.9765    2.8411 C   0  0  0  0  0  0  0  0  0  0  0  0
    3.5065   -9.5517    4.2712 C   0  0  1  0  0  0  0  0  0  0  0  0
    1.9699   -9.4046    4.3250 C   0  0  0  0  0  0  0  0  0  0  0  0
    1.3520   -8.6711    5.5639 C   0  0  1  0  0  0  0  0  0  0  0  0
    2.2845   -8.9208    6.7910 C   0  0  0  0  0  0  0  0  0  0  0  0
    2.9894  -10.2342    6.7077 N   0  0  0  0  0  0  0  0  0  0  0  0
    3.7169  -10.6171    5.4530 C   0  0  1  0  0  0  0  0  0  0  0  0
    3.3904  -12.1042    5.1335 C   0  0  0  0  0  0  0  0  0  0  0  0
    4.3247  -12.7222    4.2762 O   0  0  0  0  0  0  0  0  0  0  0  0
    0.6623   -7.2210    5.2841 C   0  0  2  0  0  0  0  0  0  0  0  0
    0.1637   -6.7816    6.5656 O   0  0  0  0  0  0  0  0  0  0  0  0
   -0.4717   -5.4920    6.6721 C   0  0  0  0  0  0  0  0  0  0  0  0
   -0.6126   -7.4024    4.3156 C   0  0  2  0  0  0  0  0  0  0  0  0
   -0.9853   -8.7557    3.6909 C   0  0  0  0  0  0  0  0  0  0  0  0
   -0.3770   -8.7648    2.2929 C   0  0  0  0  0  0  0  0  0  0  0  0
    0.1539   -7.3410    2.0947 C   0  0  1  0  0  0  0  0  0  0  0  0
   -0.5874   -6.6413    3.1033 O   0  0  0  0  0  0  0  0  0  0  0  0
    1.6227   -6.8685    2.3285 C   0  0  2  0  0  0  0  0  0  0  0  0
    2.8767   -6.6804    1.4678 C   0  0  1  0  0  0  0  0  0  0  0  0
    3.2564   -5.6582    2.6091 C   0  0  0  0  0  0  0  0  0  0  0  0
    2.4301   -6.5369    3.6188 C   0  0  2  0  0  0  0  0  0  0  0  0
    3.5595   -6.9869    4.5059 C   0  0  0  0  0  0  0  0  0  0  0  0
    4.2285   -8.2343    4.5881 C   0  0  0  0  0  0  0  0  0  0  0  0
    5.4816   -8.2771    5.2605 C   0  0  0  0  0  0  0  0  0  0  0  0
    5.7950   -7.1611    6.1024 C   0  0  0  0  0  0  0  0  0  0  0  0
    4.8637   -6.1377    6.3328 C   0  0  0  0  0  0  0  0  0  0  0  0
    5.0385   -5.1857    7.2875 O   0  0  0  0  0  0  0  0  0  0  0  0
    3.7053   -6.1316    5.5339 C   0  0  0  0  0  0  0  0  0  0  0  0
    2.5410   -5.4412    5.7120 O   0  0  0  0  0  0  0  0  0  0  0  0
    1.5881   -6.0140    4.7655 C   0  0  2  0  0  0  0  0  0  0  0  0
    4.1753   -5.7745   -0.5363 H   0  0  0  0  0  0  0  0  0  0  0  0
    5.6720   -4.6836   -0.6478 H   0  0  0  0  0  0  0  0  0  0  0  0
    6.8633   -6.0800    0.9164 H   0  0  0  0  0  0  0  0  0  0  0  0
    5.8679   -8.4237    1.0522 H   0  0  0  0  0  0  0  0  0  0  0  0
    5.6056   -7.4708    2.4702 H   0  0  0  0  0  0  0  0  0  0  0  0
    2.3450   -9.3350    1.4755 H   0  0  0  0  0  0  0  0  0  0  0  0
    3.7910   -9.8033    0.7247 H   0  0  0  0  0  0  0  0  0  0  0  0
    3.6714  -11.0018    2.6584 H   0  0  0  0  0  0  0  0  0  0  0  0
    5.0711  -10.0136    2.8109 H   0  0  0  0  0  0  0  0  0  0  0  0
    1.7098   -8.8760    3.4601 H   0  0  0  0  0  0  0  0  0  0  0  0
    1.4778  -10.3621    4.1769 H   0  0  0  0  0  0  0  0  0  0  0  0
    0.5138   -9.2963    5.8662 H   0  0  0  0  0  0  0  0  0  0  0  0
    3.0304   -8.1434    6.9298 H   0  0  0  0  0  0  0  0  0  0  0  0
    1.6934   -8.9084    7.7092 H   0  0  0  0  0  0  0  0  0  0  0  0
    3.6304  -10.3242    7.4909 H   0  0  0  0  0  0  0  0  0  0  0  0
    4.7660  -10.6622    5.7288 H   0  0  0  0  0  0  0  0  0  0  0  0
    3.4275  -12.6839    6.0561 H   0  0  0  0  0  0  0  0  0  0  0  0
    2.3838  -12.2419    4.7404 H   0  0  0  0  0  0  0  0  0  0  0  0
    3.8823  -13.4226    3.8205 H   0  0  0  0  0  0  0  0  0  0  0  0
   -0.7643   -5.3174    7.7060 H   0  0  0  0  0  0  0  0  0  0  0  0
   -1.3818   -5.4090    6.0834 H   0  0  0  0  0  0  0  0  0  0  0  0
    0.1676   -4.6513    6.4021 H   0  0  0  0  0  0  0  0  0  0  0  0
   -1.5041   -7.0895    4.8469 H   0  0  0  0  0  0  0  0  0  0  0  0
   -0.7368   -9.6380    4.2664 H   0  0  0  0  0  0  0  0  0  0  0  0
   -2.0714   -8.7795    3.5760 H   0  0  0  0  0  0  0  0  0  0  0  0
    0.3204   -9.5749    2.1138 H   0  0  0  0  0  0  0  0  0  0  0  0
   -1.1944   -8.9378    1.5935 H   0  0  0  0  0  0  0  0  0  0  0  0
   -0.1934   -7.0002    1.1144 H   0  0  0  0  0  0  0  0  0  0  0  0
    1.1896   -5.8837    2.1076 H   0  0  0  0  0  0  0  0  0  0  0  0
    2.5869   -6.2308    0.5315 H   0  0  0  0  0  0  0  0  0  0  0  0
    4.3183   -5.5195    2.8155 H   0  0  0  0  0  0  0  0  0  0  0  0
    2.8341   -4.6658    2.4367 H   0  0  0  0  0  0  0  0  0  0  0  0
    6.1084   -9.1420    5.2467 H   0  0  0  0  0  0  0  0  0  0  0  0
    6.7169   -7.1817    6.6563 H   0  0  0  0  0  0  0  0  0  0  0  0
    4.3180   -4.5840    7.3000 H   0  0  0  0  0  0  0  0  0  0  0  0
    0.9639   -5.1944    4.4052 H   0  0  0  0  0  0  0  0  0  0  0  0
    2.2856  -10.9686    6.8745 H   0  0  0  0  0  0  0  0  0  0  0  0
    3.8047   -7.8699    0.2790 H   0  0  0  0  0  0  0  0  0  0  0  0
  1  2  2  0
  1 36  1  0
  1 37  1  0
  2  3  1  0
  2 38  1  0
  3  4  1  0
  3 39  1  0
  3 40  1  0
  4 24  1  0
  4  5  1  0
  4 73  1  6
  5  6  1  0
  5 41  1  0
  5 42  1  0
  7  6  1  6
  6 43  1  0
  6 44  1  0
  7 12  1  0
  7 28  1  0
  7  8  1  0
  8  9  1  0
  8 45  1  0
  8 46  1  0
  9 10  1  0
  9 15  1  0
  9 47  1  1
 10 11  1  0
 10 48  1  0
 10 49  1  0
 11 12  1  0
 11 50  1  0
 11 72  1  0
 12 13  1  0
 12 51  1  1
 13 14  1  0
 13 52  1  0
 13 53  1  0
 14 54  1  0
 15 35  1  0
 15 16  1  1
 15 18  1  0
 16 17  1  0
 17 55  1  0
 17 56  1  0
 17 57  1  0
 18 22  1  0
 18 19  1  0
 18 58  1  1
 19 20  1  0
 19 59  1  0
 19 60  1  0
 20 21  1  0
 20 61  1  0
 20 62  1  0
 21 22  1  0
 21 23  1  0
 21 63  1  6
 23 26  1  0
 23 24  1  0
 23 64  1  6
 24 25  1  0
 24 65  1  6
 26 25  1  6
 25 66  1  0
 25 67  1  0
 26 35  1  0
 26 27  1  0
 27 33  2  0
 27 28  1  0
 28 29  2  0
 29 30  1  0
 29 68  1  0
 30 31  2  0
 30 69  1  0
 31 32  1  0
 31 33  1  0
 32 70  1  0
 33 34  1  0
 34 35  1  0
 35 71  1  6
M  CHG  2   4   1  11   1
M  END
>  <i_m_ct_stereo_status>  (128) 
1

>  <s_m_source_file>  (128) 
/var/tmp/pbs.5076255.sched01/tmpgskxq70o/44i51uky9l.sdf

>  <i_m_source_file_index>  (128) 
23

>  <i_lp_mmshare_version>  (128) 
48012

>  <i_f3d_flags>  (128) 
0

>  <s_epik_input>  (128) 
W0NIMl09W0NIXVtDSDJdTihbQ0gyXVtDSDJdMSlbQ0BIXShbQ0gyXTIpW0NASF0oW0NAQF0yM2M0YzVbQ0BdMTY3KVtDQEhdOFtDSDJdW0NIMl1bQ0hdKE84KVtDQEBdKE9bQ0gzXSkoW0NAQEhdKFtDSDJdNilbQ0gyXVtOSF1bQ0BIXTdbQ0gyXVtPSF0pW0NASF0zT2M0YyhbT0hdKVtjSF1bY0hdNQ==

>  <s_epik_cmdline>  (128) 
J2VwaWtfcHl0aG9uJywgJy1waHQnLCAnMi4wJywgJy1waCcsICc3LjAnLCAnLXRuJywgJzgnLCAnLW1hJywgJzIwMCcsICctaW1hZScsICc8aW5maWxlLm1hZT4nLCAnLW9tYWUnLCAnPG91dGZpbGUubWFlPic=

>  <r_lp_tautomer_probability>  (128) 
1

>  <r_epik_Ionization_Penalty>  (128) 
0.173232

>  <r_epik_Ionization_Penalty_Charging>  (128) 
0.158307

>  <r_epik_Ionization_Penalty_Neutral>  (128) 
0.0149259

>  <r_epik_State_Penalty>  (128) 
0.148952

>  <r_epik_Charging_Adjusted_Penalty>  (128) 
0.307258

>  <i_epik_Tot_Q>  (128) 
2

>  <i_epik_Tot_abs_Q>  (128) 
2

>  <s_lp_Force_Field>  (128) 
OPLS3e

>  <r_lp_Energy>  (128) 
230.581

>  <b_lp_Chiralities_Consistent>  (128) 
1

>  <s_lp_Variant>  (128) 
42:0-1

>  <s_i_glide_gridfile>  (128) 
pfpi4k_grid

>  <i_i_glide_lignum>  (128) 
23

>  <i_i_glide_rotatable_bonds>  (128) 
6

>  <r_i_docking_score>  (128) 
-3.24732

>  <r_i_glide_ligand_efficiency>  (128) 
-0.0927806

>  <r_i_glide_ligand_efficiency_sa>  (128) 
-0.303492

>  <r_i_glide_ligand_efficiency_ln>  (128) 
-0.712859

>  <r_i_glide_gscore>  (128) 
-3.24732

>  <r_i_glide_lipo>  (128) 
-0.234738

>  <r_i_glide_hbond>  (128) 
-0.36

>  <r_i_glide_metal>  (128) 
-0

>  <r_i_glide_rewards>  (128) 
-0.118556

>  <r_i_glide_evdw>  (128) 
-21.5458

>  <r_i_glide_ecoul>  (128) 
-10.8448

>  <r_i_glide_erotb>  (128) 
0.261403

>  <r_i_glide_esite>  (128) 
-0.0914204

>  <r_i_glide_emodel>  (128) 
-39.0278

>  <r_i_glide_energy>  (128) 
-32.3906

>  <r_i_glide_einternal>  (128) 
6.14972

>  <r_i_glide_intrahb_reward>  (128) 
-0

>  <i_i_glide_confnum>  (128) 
6

>  <i_i_glide_posenum>  (128) 
1

>  <r_i_glide_eff_state_penalty>  (128) 
0

>  <ligand_id>  (128) 
42

>  <original_smiles>  (128) 
C=CCN1CCC23CC(CNC2CO)C2(OC)C4CCC(O4)C4C1CC41c4c3ccc(O)c4OC12

>  <smiles>  (128) 
[H]Oc1c([H])c([H])c2c3c1OC1([H])C4(OC([H])([H])[H])C5([H])OC([H])(C([H])([H])C5([H])[H])C5([H])C31C([H])([H])C5([H])[N+]([H])(C([H])([H])C([H])=C([H])[H])C([H])([H])C([H])([H])C21C([H])([H])C4([H])C([H])([H])[N+]([H])([H])C1([H])C([H])([H])O[H]

$$$$
42:0:1
     RDKit          3D

 73 80  0  0  1  0  0  0  0  0999 V2000
    7.2985   -5.6479    0.4840 C   0  0  0  0  0  0  0  0  0  0  0  0
    6.1474   -5.8215    1.1482 C   0  0  0  0  0  0  0  0  0  0  0  0
    5.5938   -7.1606    1.6015 C   0  0  0  0  0  0  0  0  0  0  0  0
    4.1314   -7.3097    1.3446 N   0  0  1  0  0  0  0  0  0  0  0  0
    3.6276   -8.7184    1.3303 C   0  0  0  0  0  0  0  0  0  0  0  0
    4.1236   -9.7340    2.4159 C   0  0  0  0  0  0  0  0  0  0  0  0
    3.6168   -9.6237    3.8907 C   0  0  1  0  0  0  0  0  0  0  0  0
    2.0838   -9.4445    3.9377 C   0  0  0  0  0  0  0  0  0  0  0  0
    1.4612   -8.9895    5.2921 C   0  0  1  0  0  0  0  0  0  0  0  0
    2.3501   -9.5459    6.4453 C   0  0  0  0  0  0  0  0  0  0  0  0
    3.0108  -10.8443    6.0866 N   0  0  0  0  0  0  0  0  0  0  0  0
    3.7601  -10.9387    4.7834 C   0  0  1  0  0  0  0  0  0  0  0  0
    3.4025  -12.2938    4.1206 C   0  0  0  0  0  0  0  0  0  0  0  0
    4.4402  -12.7739    3.2784 O   0  0  0  0  0  0  0  0  0  0  0  0
    0.8325   -7.4877    5.3314 C   0  0  2  0  0  0  0  0  0  0  0  0
    0.2914   -7.3395    6.6590 O   0  0  0  0  0  0  0  0  0  0  0  0
   -0.2435   -6.0635    7.0604 C   0  0  0  0  0  0  0  0  0  0  0  0
   -0.4136   -7.3982    4.3205 C   0  0  2  0  0  0  0  0  0  0  0  0
   -0.8261   -8.5694    3.4064 C   0  0  0  0  0  0  0  0  0  0  0  0
   -0.1728   -8.2808    2.0598 C   0  0  0  0  0  0  0  0  0  0  0  0
    0.4120   -6.8694    2.1756 C   0  0  1  0  0  0  0  0  0  0  0  0
   -0.2950   -6.3768    3.3253 O   0  0  0  0  0  0  0  0  0  0  0  0
    1.9027   -6.5197    2.5042 C   0  0  2  0  0  0  0  0  0  0  0  0
    3.2032   -6.1934    1.7638 C   0  0  1  0  0  0  0  0  0  0  0  0
    3.5656   -5.4941    3.1166 C   0  0  0  0  0  0  0  0  0  0  0  0
    2.6616   -6.5341    3.8704 C   0  0  2  0  0  0  0  0  0  0  0  0
    3.7680   -7.1842    4.6703 C   0  0  0  0  0  0  0  0  0  0  0  0
    4.3783   -8.4407    4.5000 C   0  0  0  0  0  0  0  0  0  0  0  0
    5.6075   -8.6999    5.1711 C   0  0  0  0  0  0  0  0  0  0  0  0
    5.9305   -7.8282    6.2379 C   0  0  0  0  0  0  0  0  0  0  0  0
    5.0320   -6.8381    6.6863 C   0  0  0  0  0  0  0  0  0  0  0  0
    5.2117   -6.1379    7.8313 O   0  0  0  0  0  0  0  0  0  0  0  0
    3.8985   -6.6047    5.8831 C   0  0  0  0  0  0  0  0  0  0  0  0
    2.7491   -5.9222    6.1705 O   0  0  0  0  0  0  0  0  0  0  0  0
    1.8174   -6.2405    5.0904 C   0  0  2  0  0  0  0  0  0  0  0  0
    7.9397   -6.4762    0.1953 H   0  0  0  0  0  0  0  0  0  0  0  0
    7.6291   -4.6475    0.2184 H   0  0  0  0  0  0  0  0  0  0  0  0
    5.5926   -4.9261    1.4026 H   0  0  0  0  0  0  0  0  0  0  0  0
    6.1241   -7.9435    1.0615 H   0  0  0  0  0  0  0  0  0  0  0  0
    5.8433   -7.2932    2.6466 H   0  0  0  0  0  0  0  0  0  0  0  0
    2.5571   -8.7593    1.1914 H   0  0  0  0  0  0  0  0  0  0  0  0
    3.9939   -9.1196    0.3879 H   0  0  0  0  0  0  0  0  0  0  0  0
    3.7631  -10.6916    2.0556 H   0  0  0  0  0  0  0  0  0  0  0  0
    5.2134   -9.8287    2.3949 H   0  0  0  0  0  0  0  0  0  0  0  0
    1.8738   -8.7306    3.2077 H   0  0  0  0  0  0  0  0  0  0  0  0
    1.5624  -10.3278    3.5659 H   0  0  0  0  0  0  0  0  0  0  0  0
    0.5903   -9.6274    5.4333 H   0  0  0  0  0  0  0  0  0  0  0  0
    3.1052   -8.8525    6.7742 H   0  0  0  0  0  0  0  0  0  0  0  0
    1.7316   -9.7228    7.3223 H   0  0  0  0  0  0  0  0  0  0  0  0
    3.6235  -11.1094    6.8346 H   0  0  0  0  0  0  0  0  0  0  0  0
    4.7863  -11.0970    5.0791 H   0  0  0  0  0  0  0  0  0  0  0  0
    3.2785  -13.0522    4.8920 H   0  0  0  0  0  0  0  0  0  0  0  0
    2.4543  -12.2674    3.5821 H   0  0  0  0  0  0  0  0  0  0  0  0
    4.2322  -12.5784    2.3657 H   0  0  0  0  0  0  0  0  0  0  0  0
   -0.5828   -6.1128    8.0953 H   0  0  0  0  0  0  0  0  0  0  0  0
   -1.1041   -5.7565    6.4647 H   0  0  0  0  0  0  0  0  0  0  0  0
    0.4664   -5.2353    7.0363 H   0  0  0  0  0  0  0  0  0  0  0  0
   -1.3126   -7.1856    4.8925 H   0  0  0  0  0  0  0  0  0  0  0  0
   -0.6630   -9.5796    3.7793 H   0  0  0  0  0  0  0  0  0  0  0  0
   -1.9075   -8.5109    3.2591 H   0  0  0  0  0  0  0  0  0  0  0  0
    0.5093   -9.0538    1.7243 H   0  0  0  0  0  0  0  0  0  0  0  0
   -0.9629   -8.2688    1.3110 H   0  0  0  0  0  0  0  0  0  0  0  0
    0.0888   -6.3043    1.2972 H   0  0  0  0  0  0  0  0  0  0  0  0
    1.5241   -5.4868    2.5096 H   0  0  0  0  0  0  0  0  0  0  0  0
    3.0756   -5.4604    0.9651 H   0  0  0  0  0  0  0  0  0  0  0  0
    4.6241   -5.4298    3.3950 H   0  0  0  0  0  0  0  0  0  0  0  0
    3.1754   -4.4728    3.1761 H   0  0  0  0  0  0  0  0  0  0  0  0
    6.2120   -9.5800    4.9701 H   0  0  0  0  0  0  0  0  0  0  0  0
    6.8376   -7.9995    6.8043 H   0  0  0  0  0  0  0  0  0  0  0  0
    4.5062   -5.5171    7.9646 H   0  0  0  0  0  0  0  0  0  0  0  0
    1.2378   -5.3368    4.9090 H   0  0  0  0  0  0  0  0  0  0  0  0
    2.2797  -11.5364    6.1154 H   0  0  0  0  0  0  0  0  0  0  0  0
    4.1116   -7.1351    0.3607 H   0  0  0  0  0  0  0  0  0  0  0  0
  1  2  2  0
  1 36  1  0
  1 37  1  0
  2  3  1  0
  2 38  1  0
  3  4  1  0
  3 39  1  0
  3 40  1  0
  4 24  1  0
  4  5  1  0
  4 73  1  6
  5  6  1  0
  5 41  1  0
  5 42  1  0
  7  6  1  6
  6 43  1  0
  6 44  1  0
  7 12  1  0
  7 28  1  0
  7  8  1  0
  8  9  1  0
  8 45  1  0
  8 46  1  0
  9 10  1  0
  9 15  1  0
  9 47  1  1
 10 11  1  0
 10 48  1  0
 10 49  1  0
 11 12  1  0
 11 50  1  0
 11 72  1  0
 12 13  1  0
 12 51  1  1
 13 14  1  0
 13 52  1  0
 13 53  1  0
 14 54  1  0
 15 35  1  0
 15 16  1  1
 15 18  1  0
 16 17  1  0
 17 55  1  0
 17 56  1  0
 17 57  1  0
 18 22  1  0
 18 19  1  0
 18 58  1  1
 19 20  1  0
 19 59  1  0
 19 60  1  0
 20 21  1  0
 20 61  1  0
 20 62  1  0
 21 22  1  0
 21 23  1  0
 21 63  1  6
 23 26  1  0
 23 24  1  0
 23 64  1  1
 24 25  1  0
 24 65  1  6
 26 25  1  6
 25 66  1  0
 25 67  1  0
 26 35  1  0
 26 27  1  0
 27 33  2  0
 27 28  1  0
 28 29  2  0
 29 30  1  0
 29 68  1  0
 30 31  2  0
 30 69  1  0
 31 32  1  0
 31 33  1  0
 32 70  1  0
 33 34  1  0
 34 35  1  0
 35 71  1  6
M  CHG  2   4   1  11   1
M  END
>  <i_m_ct_stereo_status>  (129) 
1

>  <s_m_source_file>  (129) 
/var/tmp/pbs.5076255.sched01/tmpgskxq70o/44i51uky9l.sdf

>  <i_m_source_file_index>  (129) 
23

>  <i_lp_mmshare_version>  (129) 
48012

>  <i_f3d_flags>  (129) 
0

>  <s_epik_input>  (129) 
W0NIMl09W0NIXVtDSDJdTihbQ0gyXVtDSDJdMSlbQ0BIXShbQ0gyXTIpW0NASF0oW0NAQF0yM2M0YzVbQ0BdMTY3KVtDQEhdOFtDSDJdW0NIMl1bQ0hdKE84KVtDQEBdKE9bQ0gzXSkoW0NAQEhdKFtDSDJdNilbQ0gyXVtOSF1bQ0BIXTdbQ0gyXVtPSF0pW0NASF0zT2M0YyhbT0hdKVtjSF1bY0hdNQ==

>  <s_epik_cmdline>  (129) 
J2VwaWtfcHl0aG9uJywgJy1waHQnLCAnMi4wJywgJy1waCcsICc3LjAnLCAnLXRuJywgJzgnLCAnLW1hJywgJzIwMCcsICctaW1hZScsICc8aW5maWxlLm1hZT4nLCAnLW9tYWUnLCAnPG91dGZpbGUubWFlPic=

>  <r_lp_tautomer_probability>  (129) 
1

>  <r_epik_Ionization_Penalty>  (129) 
0.173232

>  <r_epik_Ionization_Penalty_Charging>  (129) 
0.158307

>  <r_epik_Ionization_Penalty_Neutral>  (129) 
0.0149259

>  <r_epik_State_Penalty>  (129) 
0.148952

>  <r_epik_Charging_Adjusted_Penalty>  (129) 
0.307258

>  <i_epik_Tot_Q>  (129) 
2

>  <i_epik_Tot_abs_Q>  (129) 
2

>  <s_lp_Force_Field>  (129) 
OPLS3e

>  <r_lp_Energy>  (129) 
230.581

>  <b_lp_Chiralities_Consistent>  (129) 
1

>  <s_lp_Variant>  (129) 
42:0-1

>  <s_i_glide_gridfile>  (129) 
pfpi4k_grid

>  <i_i_glide_lignum>  (129) 
23

>  <i_i_glide_rotatable_bonds>  (129) 
6

>  <r_i_docking_score>  (129) 
-3.15296

>  <r_i_glide_ligand_efficiency>  (129) 
-0.0900845

>  <r_i_glide_ligand_efficiency_sa>  (129) 
-0.294672

>  <r_i_glide_ligand_efficiency_ln>  (129) 
-0.692144

>  <r_i_glide_gscore>  (129) 
-3.15296

>  <r_i_glide_lipo>  (129) 
-0.267221

>  <r_i_glide_hbond>  (129) 
-0.388419

>  <r_i_glide_metal>  (129) 
-0

>  <r_i_glide_rewards>  (129) 
-0.118556

>  <r_i_glide_evdw>  (129) 
-20.3454

>  <r_i_glide_ecoul>  (129) 
-10.2057

>  <r_i_glide_erotb>  (129) 
0.261403

>  <r_i_glide_esite>  (129) 
-0.0920346

>  <r_i_glide_emodel>  (129) 
-38.5642

>  <r_i_glide_energy>  (129) 
-30.5511

>  <r_i_glide_einternal>  (129) 
3.65667

>  <r_i_glide_intrahb_reward>  (129) 
-0

>  <i_i_glide_confnum>  (129) 
6

>  <i_i_glide_posenum>  (129) 
7

>  <r_i_glide_eff_state_penalty>  (129) 
0

>  <ligand_id>  (129) 
42

>  <original_smiles>  (129) 
C=CCN1CCC23CC(CNC2CO)C2(OC)C4CCC(O4)C4C1CC41c4c3ccc(O)c4OC12

>  <smiles>  (129) 
[H]Oc1c([H])c([H])c2c3c1OC1([H])C4(OC([H])([H])[H])C5([H])OC([H])(C([H])([H])C5([H])[H])C5([H])C31C([H])([H])C5([H])[N+]([H])(C([H])([H])C([H])=C([H])[H])C([H])([H])C([H])([H])C21C([H])([H])C4([H])C([H])([H])[N+]([H])([H])C1([H])C([H])([H])O[H]

$$$$
42:0:2
     RDKit          3D

 73 80  0  0  1  0  0  0  0  0999 V2000
    6.7441   -4.3967    0.8645 C   0  0  0  0  0  0  0  0  0  0  0  0
    5.7960   -4.7839    1.7365 C   0  0  0  0  0  0  0  0  0  0  0  0
    5.4327   -6.2279    2.0465 C   0  0  0  0  0  0  0  0  0  0  0  0
    4.0086   -6.5540    1.7405 N   0  0  1  0  0  0  0  0  0  0  0  0
    3.7285   -8.0007    1.4709 C   0  0  0  0  0  0  0  0  0  0  0  0
    4.3750   -9.1132    2.3740 C   0  0  0  0  0  0  0  0  0  0  0  0
    3.8532   -9.3113    3.8376 C   0  0  1  0  0  0  0  0  0  0  0  0
    2.3101   -9.3195    3.8813 C   0  0  0  0  0  0  0  0  0  0  0  0
    1.6453   -9.2622    5.2857 C   0  0  1  0  0  0  0  0  0  0  0  0
    2.6473   -9.8175    6.3532 C   0  0  0  0  0  0  0  0  0  0  0  0
    3.4567  -10.9449    5.8136 N   0  0  0  0  0  0  0  0  0  0  0  0
    4.2048  -10.7097    4.5304 C   0  0  1  0  0  0  0  0  0  0  0  0
    4.0830  -12.0081    3.6872 C   0  0  0  0  0  0  0  0  0  0  0  0
    2.7365  -12.2117    3.3661 O   0  0  0  0  0  0  0  0  0  0  0  0
    0.7749   -7.9248    5.5587 C   0  0  2  0  0  0  0  0  0  0  0  0
    0.2559   -7.9671    6.9004 O   0  0  0  0  0  0  0  0  0  0  0  0
   -0.4147   -9.1258    7.4114 C   0  0  0  0  0  0  0  0  0  0  0  0
   -0.4745   -7.8184    4.5494 C   0  0  2  0  0  0  0  0  0  0  0  0
   -0.7129   -8.8597    3.4325 C   0  0  0  0  0  0  0  0  0  0  0  0
   -0.0977   -8.2636    2.1598 C   0  0  0  0  0  0  0  0  0  0  0  0
    0.2625   -6.8170    2.5265 C   0  0  1  0  0  0  0  0  0  0  0  0
   -0.5183   -6.6461    3.7183 O   0  0  0  0  0  0  0  0  0  0  0  0
    1.6691   -6.2782    2.9572 C   0  0  2  0  0  0  0  0  0  0  0  0
    2.9237   -5.6661    2.3092 C   0  0  1  0  0  0  0  0  0  0  0  0
    3.1613   -5.1372    3.7657 C   0  0  0  0  0  0  0  0  0  0  0  0
    2.4187   -6.4111    4.3270 C   0  0  2  0  0  0  0  0  0  0  0  0
    3.6159   -7.0305    5.0083 C   0  0  0  0  0  0  0  0  0  0  0  0
    4.4232   -8.1227    4.6572 C   0  0  0  0  0  0  0  0  0  0  0  0
    5.6691   -8.2985    5.3171 C   0  0  0  0  0  0  0  0  0  0  0  0
    5.8540   -7.5734    6.5231 C   0  0  0  0  0  0  0  0  0  0  0  0
    4.8039   -6.8120    7.0898 C   0  0  0  0  0  0  0  0  0  0  0  0
    4.8857   -6.2780    8.3389 O   0  0  0  0  0  0  0  0  0  0  0  0
    3.6594   -6.6306    6.3227 C   0  0  0  0  0  0  0  0  0  0  0  0
    2.4105   -6.2193    6.6917 O   0  0  0  0  0  0  0  0  0  0  0  0
    1.5263   -6.5028    5.5658 C   0  0  2  0  0  0  0  0  0  0  0  0
    7.3252   -5.1069    0.2881 H   0  0  0  0  0  0  0  0  0  0  0  0
    6.9560   -3.3449    0.7181 H   0  0  0  0  0  0  0  0  0  0  0  0
    5.2652   -4.0111    2.2753 H   0  0  0  0  0  0  0  0  0  0  0  0
    6.0770   -6.8674    1.4426 H   0  0  0  0  0  0  0  0  0  0  0  0
    5.6862   -6.4295    3.0820 H   0  0  0  0  0  0  0  0  0  0  0  0
    2.6725   -8.1702    1.2964 H   0  0  0  0  0  0  0  0  0  0  0  0
    4.1570   -8.1657    0.4831 H   0  0  0  0  0  0  0  0  0  0  0  0
    4.2002  -10.0414    1.8291 H   0  0  0  0  0  0  0  0  0  0  0  0
    5.4634   -9.0154    2.3844 H   0  0  0  0  0  0  0  0  0  0  0  0
    2.0065   -8.5097    3.3017 H   0  0  0  0  0  0  0  0  0  0  0  0
    1.8579  -10.1096    3.2976 H   0  0  0  0  0  0  0  0  0  0  0  0
    0.9080  -10.0609    5.2623 H   0  0  0  0  0  0  0  0  0  0  0  0
    3.2915   -9.0653    6.7791 H   0  0  0  0  0  0  0  0  0  0  0  0
    2.1745  -10.2474    7.2295 H   0  0  0  0  0  0  0  0  0  0  0  0
    4.0854  -11.2568    6.5271 H   0  0  0  0  0  0  0  0  0  0  0  0
    5.2530  -10.7400    4.8015 H   0  0  0  0  0  0  0  0  0  0  0  0
    4.6893  -11.9889    2.7783 H   0  0  0  0  0  0  0  0  0  0  0  0
    4.4291  -12.8720    4.2576 H   0  0  0  0  0  0  0  0  0  0  0  0
    2.5674  -13.1536    3.2094 H   0  0  0  0  0  0  0  0  0  0  0  0
   -0.6623   -8.9100    8.4530 H   0  0  0  0  0  0  0  0  0  0  0  0
    0.1779  -10.0249    7.4469 H   0  0  0  0  0  0  0  0  0  0  0  0
   -1.3201   -9.4052    6.8691 H   0  0  0  0  0  0  0  0  0  0  0  0
   -1.3753   -7.7715    5.1586 H   0  0  0  0  0  0  0  0  0  0  0  0
   -0.4023   -9.8808    3.6390 H   0  0  0  0  0  0  0  0  0  0  0  0
   -1.7893   -8.9384    3.2656 H   0  0  0  0  0  0  0  0  0  0  0  0
    0.6925   -8.8593    1.7150 H   0  0  0  0  0  0  0  0  0  0  0  0
   -0.8779   -8.2458    1.3974 H   0  0  0  0  0  0  0  0  0  0  0  0
   -0.1377   -6.1767    1.7365 H   0  0  0  0  0  0  0  0  0  0  0  0
    1.1332   -5.3307    3.1088 H   0  0  0  0  0  0  0  0  0  0  0  0
    2.6945   -4.8447    1.6246 H   0  0  0  0  0  0  0  0  0  0  0  0
    4.1973   -4.9650    4.0712 H   0  0  0  0  0  0  0  0  0  0  0  0
    2.6235   -4.2056    3.9697 H   0  0  0  0  0  0  0  0  0  0  0  0
    6.4047   -9.0287    5.0052 H   0  0  0  0  0  0  0  0  0  0  0  0
    6.7714   -7.6980    7.0801 H   0  0  0  0  0  0  0  0  0  0  0  0
    4.1164   -5.7596    8.5325 H   0  0  0  0  0  0  0  0  0  0  0  0
    0.7795   -5.7020    5.5719 H   0  0  0  0  0  0  0  0  0  0  0  0
    2.8119  -11.6960    5.6344 H   0  0  0  0  0  0  0  0  0  0  0  0
    3.9661   -6.2260    0.7925 H   0  0  0  0  0  0  0  0  0  0  0  0
  1  2  2  0
  1 36  1  0
  1 37  1  0
  2  3  1  0
  2 38  1  0
  3  4  1  0
  3 39  1  0
  3 40  1  0
  4 24  1  0
  4  5  1  0
  4 73  1  6
  5  6  1  0
  5 41  1  0
  5 42  1  0
  7  6  1  6
  6 43  1  0
  6 44  1  0
  7 12  1  0
  7 28  1  0
  7  8  1  0
  8  9  1  0
  8 45  1  0
  8 46  1  0
  9 10  1  0
  9 15  1  0
  9 47  1  6
 10 11  1  0
 10 48  1  0
 10 49  1  0
 11 12  1  0
 11 50  1  0
 11 72  1  0
 12 13  1  0
 12 51  1  1
 13 14  1  0
 13 52  1  0
 13 53  1  0
 14 54  1  0
 15 35  1  0
 15 16  1  1
 15 18  1  0
 16 17  1  0
 17 55  1  0
 17 56  1  0
 17 57  1  0
 18 22  1  0
 18 19  1  0
 18 58  1  1
 19 20  1  0
 19 59  1  0
 19 60  1  0
 20 21  1  0
 20 61  1  0
 20 62  1  0
 21 22  1  0
 21 23  1  0
 21 63  1  6
 23 26  1  0
 23 24  1  0
 23 64  1  1
 24 25  1  0
 24 65  1  6
 26 25  1  1
 25 66  1  0
 25 67  1  0
 26 35  1  0
 26 27  1  0
 27 33  2  0
 27 28  1  0
 28 29  2  0
 29 30  1  0
 29 68  1  0
 30 31  2  0
 30 69  1  0
 31 32  1  0
 31 33  1  0
 32 70  1  0
 33 34  1  0
 34 35  1  0
 35 71  1  6
M  CHG  2   4   1  11   1
M  END
>  <i_m_ct_stereo_status>  (130) 
1

>  <s_m_source_file>  (130) 
/var/tmp/pbs.5076255.sched01/tmpgskxq70o/44i51uky9l.sdf

>  <i_m_source_file_index>  (130) 
23

>  <i_lp_mmshare_version>  (130) 
48012

>  <i_f3d_flags>  (130) 
0

>  <s_epik_input>  (130) 
W0NIMl09W0NIXVtDSDJdTihbQ0gyXVtDSDJdMSlbQ0BIXShbQ0gyXTIpW0NASF0oW0NAQF0yM2M0YzVbQ0BdMTY3KVtDQEhdOFtDSDJdW0NIMl1bQ0hdKE84KVtDQEBdKE9bQ0gzXSkoW0NAQEhdKFtDSDJdNilbQ0gyXVtOSF1bQ0BIXTdbQ0gyXVtPSF0pW0NASF0zT2M0YyhbT0hdKVtjSF1bY0hdNQ==

>  <s_epik_cmdline>  (130) 
J2VwaWtfcHl0aG9uJywgJy1waHQnLCAnMi4wJywgJy1waCcsICc3LjAnLCAnLXRuJywgJzgnLCAnLW1hJywgJzIwMCcsICctaW1hZScsICc8aW5maWxlLm1hZT4nLCAnLW9tYWUnLCAnPG91dGZpbGUubWFlPic=

>  <r_lp_tautomer_probability>  (130) 
1

>  <r_epik_Ionization_Penalty>  (130) 
0.173232

>  <r_epik_Ionization_Penalty_Charging>  (130) 
0.158307

>  <r_epik_Ionization_Penalty_Neutral>  (130) 
0.0149259

>  <r_epik_State_Penalty>  (130) 
0.148952

>  <r_epik_Charging_Adjusted_Penalty>  (130) 
0.307258

>  <i_epik_Tot_Q>  (130) 
2

>  <i_epik_Tot_abs_Q>  (130) 
2

>  <s_lp_Force_Field>  (130) 
OPLS3e

>  <r_lp_Energy>  (130) 
230.581

>  <b_lp_Chiralities_Consistent>  (130) 
1

>  <s_lp_Variant>  (130) 
42:0-1

>  <s_i_glide_gridfile>  (130) 
pfpi4k_grid

>  <i_i_glide_lignum>  (130) 
23

>  <i_i_glide_rotatable_bonds>  (130) 
6

>  <r_i_docking_score>  (130) 
-3.02611

>  <r_i_glide_ligand_efficiency>  (130) 
-0.0864604

>  <r_i_glide_ligand_efficiency_sa>  (130) 
-0.282818

>  <r_i_glide_ligand_efficiency_ln>  (130) 
-0.664299

>  <r_i_glide_gscore>  (130) 
-3.02611

>  <r_i_glide_lipo>  (130) 
-0.199167

>  <r_i_glide_hbond>  (130) 
-0.398097

>  <r_i_glide_metal>  (130) 
-0

>  <r_i_glide_rewards>  (130) 
-0.118556

>  <r_i_glide_evdw>  (130) 
-16.9352

>  <r_i_glide_ecoul>  (130) 
-11.0521

>  <r_i_glide_erotb>  (130) 
0.261403

>  <r_i_glide_esite>  (130) 
-0.0671242

>  <r_i_glide_emodel>  (130) 
-33.5045

>  <r_i_glide_energy>  (130) 
-27.9873

>  <r_i_glide_einternal>  (130) 
6.28059

>  <r_i_glide_intrahb_reward>  (130) 
-0

>  <i_i_glide_confnum>  (130) 
5

>  <i_i_glide_posenum>  (130) 
34

>  <r_i_glide_eff_state_penalty>  (130) 
0

>  <ligand_id>  (130) 
42

>  <original_smiles>  (130) 
C=CCN1CCC23CC(CNC2CO)C2(OC)C4CCC(O4)C4C1CC41c4c3ccc(O)c4OC12

>  <smiles>  (130) 
[H]Oc1c([H])c([H])c2c3c1OC1([H])C4(OC([H])([H])[H])C5([H])OC([H])(C([H])([H])C5([H])[H])C5([H])C31C([H])([H])C5([H])[N+]([H])(C([H])([H])C([H])=C([H])[H])C([H])([H])C([H])([H])C21C([H])([H])C4([H])C([H])([H])[N+]([H])([H])C1([H])C([H])([H])O[H]

$$$$
42:4:0
     RDKit          3D

 72 79  0  0  1  0  0  0  0  0999 V2000
    5.4537   -3.2557    2.9008 C   0  0  0  0  0  0  0  0  0  0  0  0
    4.4956   -4.1956    2.8991 C   0  0  0  0  0  0  0  0  0  0  0  0
    3.2970   -4.1943    3.8269 C   0  0  0  0  0  0  0  0  0  0  0  0
    3.0250   -5.5205    4.4432 N   0  0  2  0  0  0  0  0  0  0  0  0
    1.5782   -5.6944    4.7570 C   0  0  0  0  0  0  0  0  0  0  0  0
    0.8171   -6.6057    3.7344 C   0  0  0  0  0  0  0  0  0  0  0  0
    1.2896   -8.0913    3.5993 C   0  0  1  0  0  0  0  0  0  0  0  0
    1.2816   -8.7727    4.9743 C   0  0  0  0  0  0  0  0  0  0  0  0
    1.9471  -10.1721    5.0782 C   0  0  1  0  0  0  0  0  0  0  0  0
    1.8360  -10.8958    3.7115 C   0  0  0  0  0  0  0  0  0  0  0  0
    0.5869  -10.5098    3.0122 N   0  0  0  0  0  0  0  0  0  0  0  0
    0.3248   -9.0625    2.7743 C   0  0  1  0  0  0  0  0  0  0  0  0
   -1.2073   -8.8029    2.7817 C   0  0  0  0  0  0  0  0  0  0  0  0
   -1.7672   -8.6534    4.0627 O   0  0  0  0  0  0  0  0  0  0  0  0
    3.2901  -10.2725    5.9562 C   0  0  2  0  0  0  0  0  0  0  0  0
    3.5739  -11.6741    5.8842 O   0  0  0  0  0  0  0  0  0  0  0  0
    4.7597  -12.1947    6.4796 C   0  0  0  0  0  0  0  0  0  0  0  0
    2.9608   -9.9152    7.4866 C   0  0  2  0  0  0  0  0  0  0  0  0
    1.5641   -9.4348    7.9467 C   0  0  0  0  0  0  0  0  0  0  0  0
    1.6351   -7.9060    7.9793 C   0  0  0  0  0  0  0  0  0  0  0  0
    3.1155   -7.5731    7.7432 C   0  0  1  0  0  0  0  0  0  0  0  0
    3.7386   -8.8378    8.0209 O   0  0  0  0  0  0  0  0  0  0  0  0
    3.7629   -7.1587    6.3804 C   0  0  2  0  0  0  0  0  0  0  0  0
    4.0008   -5.8854    5.5319 C   0  0  1  0  0  0  0  0  0  0  0  0
    5.1287   -6.7883    4.9206 C   0  0  0  0  0  0  0  0  0  0  0  0
    4.1885   -8.0441    5.1689 C   0  0  2  0  0  0  0  0  0  0  0  0
    3.8705   -8.3283    3.7242 C   0  0  0  0  0  0  0  0  0  0  0  0
    2.7076   -8.0768    2.9679 C   0  0  0  0  0  0  0  0  0  0  0  0
    2.7946   -8.1279    1.5628 C   0  0  0  0  0  0  0  0  0  0  0  0
    3.9246   -8.7978    1.0276 C   0  0  0  0  0  0  0  0  0  0  0  0
    4.8622   -9.4493    1.8482 C   0  0  0  0  0  0  0  0  0  0  0  0
    5.8121  -10.2596    1.3152 O   0  0  0  0  0  0  0  0  0  0  0  0
    4.7503   -9.2554    3.2299 C   0  0  0  0  0  0  0  0  0  0  0  0
    5.2816   -9.9499    4.2772 O   0  0  0  0  0  0  0  0  0  0  0  0
    4.6035   -9.4782    5.4822 C   0  0  2  0  0  0  0  0  0  0  0  0
    5.4490   -2.4204    3.5919 H   0  0  0  0  0  0  0  0  0  0  0  0
    6.2767   -3.3112    2.1961 H   0  0  0  0  0  0  0  0  0  0  0  0
    4.5639   -4.9952    2.1696 H   0  0  0  0  0  0  0  0  0  0  0  0
    3.4031   -3.4263    4.5912 H   0  0  0  0  0  0  0  0  0  0  0  0
    2.4648   -3.8863    3.1958 H   0  0  0  0  0  0  0  0  0  0  0  0
    1.4328   -6.0289    5.7752 H   0  0  0  0  0  0  0  0  0  0  0  0
    1.0873   -4.7232    4.7639 H   0  0  0  0  0  0  0  0  0  0  0  0
   -0.2300   -6.5829    4.0449 H   0  0  0  0  0  0  0  0  0  0  0  0
    0.8176   -6.1359    2.7494 H   0  0  0  0  0  0  0  0  0  0  0  0
    1.7862   -8.1154    5.6053 H   0  0  0  0  0  0  0  0  0  0  0  0
    0.2780   -8.8112    5.3946 H   0  0  0  0  0  0  0  0  0  0  0  0
    1.2376  -10.7761    5.6375 H   0  0  0  0  0  0  0  0  0  0  0  0
    2.6875  -10.7089    3.0687 H   0  0  0  0  0  0  0  0  0  0  0  0
    1.8430  -11.9758    3.8737 H   0  0  0  0  0  0  0  0  0  0  0  0
    0.5192  -11.0136    2.1362 H   0  0  0  0  0  0  0  0  0  0  0  0
    0.5017   -8.9071    1.7166 H   0  0  0  0  0  0  0  0  0  0  0  0
   -1.4397   -7.9010    2.2183 H   0  0  0  0  0  0  0  0  0  0  0  0
   -1.7425   -9.6098    2.2779 H   0  0  0  0  0  0  0  0  0  0  0  0
   -1.8068   -9.5376    4.4602 H   0  0  0  0  0  0  0  0  0  0  0  0
    4.6819  -13.2813    6.5044 H   0  0  0  0  0  0  0  0  0  0  0  0
    4.9249  -11.8649    7.5044 H   0  0  0  0  0  0  0  0  0  0  0  0
    5.6439  -11.9490    5.8929 H   0  0  0  0  0  0  0  0  0  0  0  0
    3.1706  -10.7894    8.0998 H   0  0  0  0  0  0  0  0  0  0  0  0
    0.7001   -9.8361    7.4175 H   0  0  0  0  0  0  0  0  0  0  0  0
    1.4218   -9.7729    8.9757 H   0  0  0  0  0  0  0  0  0  0  0  0
    0.9189   -7.4056    7.3336 H   0  0  0  0  0  0  0  0  0  0  0  0
    1.3673   -7.5884    8.9860 H   0  0  0  0  0  0  0  0  0  0  0  0
    3.4207   -6.8661    8.5201 H   0  0  0  0  0  0  0  0  0  0  0  0
    4.6912   -7.1288    6.9736 H   0  0  0  0  0  0  0  0  0  0  0  0
    4.3840   -5.0471    6.1096 H   0  0  0  0  0  0  0  0  0  0  0  0
    5.4259   -6.5655    3.8901 H   0  0  0  0  0  0  0  0  0  0  0  0
    6.0535   -6.8031    5.5082 H   0  0  0  0  0  0  0  0  0  0  0  0
    1.9817   -7.8186    0.9116 H   0  0  0  0  0  0  0  0  0  0  0  0
    4.0121   -8.9276   -0.0394 H   0  0  0  0  0  0  0  0  0  0  0  0
    5.3964  -11.0033    0.8766 H   0  0  0  0  0  0  0  0  0  0  0  0
    5.3516   -9.5032    6.2753 H   0  0  0  0  0  0  0  0  0  0  0  0
    3.1813   -6.2080    3.7207 H   0  0  0  0  0  0  0  0  0  0  0  0
  1  2  2  0
  1 36  1  0
  1 37  1  0
  2  3  1  0
  2 38  1  0
  3  4  1  0
  3 39  1  0
  3 40  1  0
  4 24  1  0
  4  5  1  0
  4 72  1  6
  5  6  1  0
  5 41  1  0
  5 42  1  0
  7  6  1  1
  6 43  1  0
  6 44  1  0
  7 12  1  0
  7 28  1  0
  7  8  1  0
  8  9  1  0
  8 45  1  0
  8 46  1  0
  9 10  1  0
  9 15  1  0
  9 47  1  1
 10 11  1  0
 10 48  1  0
 10 49  1  0
 11 12  1  0
 11 50  1  0
 12 13  1  0
 12 51  1  6
 13 14  1  0
 13 52  1  0
 13 53  1  0
 14 54  1  0
 15 35  1  0
 15 16  1  1
 15 18  1  0
 16 17  1  0
 17 55  1  0
 17 56  1  0
 17 57  1  0
 18 22  1  0
 18 19  1  0
 18 58  1  1
 19 20  1  0
 19 59  1  0
 19 60  1  0
 20 21  1  0
 20 61  1  0
 20 62  1  0
 21 22  1  0
 21 23  1  0
 21 63  1  1
 23 26  1  0
 23 24  1  0
 23 64  1  1
 24 25  1  0
 24 65  1  1
 26 25  1  6
 25 66  1  0
 25 67  1  0
 26 35  1  0
 26 27  1  0
 27 33  2  0
 27 28  1  0
 28 29  2  0
 29 30  1  0
 29 68  1  0
 30 31  2  0
 30 69  1  0
 31 32  1  0
 31 33  1  0
 32 70  1  0
 33 34  1  0
 34 35  1  0
 35 71  1  1
M  CHG  1   4   1
M  END
>  <i_m_ct_stereo_status>  (131) 
1

>  <s_m_source_file>  (131) 
/var/tmp/pbs.5076255.sched01/tmpgskxq70o/44i51uky9l.sdf

>  <i_m_source_file_index>  (131) 
27

>  <i_lp_mmshare_version>  (131) 
48012

>  <i_f3d_flags>  (131) 
0

>  <s_epik_input>  (131) 
W0NIMl09W0NIXVtDSDJdTihbQ0gyXVtDSDJdMSlbQ0BIXShbQ0gyXTIpW0NASF0oW0NAQF0yM2M0YzVbQ0BdMTY3KVtDQEhdOFtDSDJdW0NIMl1bQ0hdKE84KVtDQEBdKE9bQ0gzXSkoW0NAQEhdKFtDSDJdNilbQ0gyXVtOSF1bQ0BIXTdbQ0gyXVtPSF0pW0NASF0zT2M0YyhbT0hdKVtjSF1bY0hdNQ==

>  <s_epik_cmdline>  (131) 
J2VwaWtfcHl0aG9uJywgJy1waHQnLCAnMi4wJywgJy1waCcsICc3LjAnLCAnLXRuJywgJzgnLCAnLW1hJywgJzIwMCcsICctaW1hZScsICc8aW5maWxlLm1hZT4nLCAnLW9tYWUnLCAnPG91dGZpbGUubWFlPic=

>  <r_epik_Ionization_Penalty>  (131) 
1.99884

>  <r_epik_Ionization_Penalty_Charging>  (131) 
0.0673165

>  <r_epik_Ionization_Penalty_Neutral>  (131) 
1.93153

>  <r_epik_State_Penalty>  (131) 
2.18229

>  <r_epik_Charging_Adjusted_Penalty>  (131) 
2.24961

>  <i_epik_Tot_Q>  (131) 
1

>  <i_epik_Tot_abs_Q>  (131) 
1

>  <s_lp_Force_Field>  (131) 
OPLS3e

>  <r_lp_Energy>  (131) 
224.167

>  <b_lp_Chiralities_Consistent>  (131) 
1

>  <s_lp_Variant>  (131) 
42:0-5

>  <s_i_glide_gridfile>  (131) 
pfpi4k_grid

>  <i_i_glide_lignum>  (131) 
27

>  <i_i_glide_rotatable_bonds>  (131) 
6

>  <r_i_docking_score>  (131) 
-2.68564

>  <r_i_glide_ligand_efficiency>  (131) 
-0.0767327

>  <r_i_glide_ligand_efficiency_sa>  (131) 
-0.250998

>  <r_i_glide_ligand_efficiency_ln>  (131) 
-0.589559

>  <r_i_glide_gscore>  (131) 
-2.68564

>  <r_i_glide_lipo>  (131) 
-0.106607

>  <r_i_glide_hbond>  (131) 
-0.152

>  <r_i_glide_metal>  (131) 
-0

>  <r_i_glide_rewards>  (131) 
-0.125429

>  <r_i_glide_evdw>  (131) 
-21.8571

>  <r_i_glide_ecoul>  (131) 
-9.80771

>  <r_i_glide_erotb>  (131) 
0.262404

>  <r_i_glide_esite>  (131) 
0

>  <r_i_glide_emodel>  (131) 
-32.8205

>  <r_i_glide_energy>  (131) 
-31.6648

>  <r_i_glide_einternal>  (131) 
8.63292

>  <r_i_glide_intrahb_reward>  (131) 
-0

>  <i_i_glide_confnum>  (131) 
3

>  <i_i_glide_posenum>  (131) 
2

>  <r_i_glide_eff_state_penalty>  (131) 
0

>  <ligand_id>  (131) 
42

>  <original_smiles>  (131) 
C=CCN1CCC23CC(CNC2CO)C2(OC)C4CCC(O4)C4C1CC41c4c3ccc(O)c4OC12

>  <smiles>  (131) 
[H]Oc1c([H])c([H])c2c3c1OC1([H])C4(OC([H])([H])[H])C5([H])OC([H])(C([H])([H])C5([H])[H])C5([H])C31C([H])([H])C5([H])[N+]([H])(C([H])([H])C([H])=C([H])[H])C([H])([H])C([H])([H])C21C([H])([H])C4([H])C([H])([H])N([H])C1([H])C([H])([H])O[H]

$$$$
42:4:1
     RDKit          3D

 72 79  0  0  1  0  0  0  0  0999 V2000
    3.0924   -2.0891    6.2426 C   0  0  0  0  0  0  0  0  0  0  0  0
    2.5977   -3.1447    5.5785 C   0  0  0  0  0  0  0  0  0  0  0  0
    2.3396   -4.5033    6.2026 C   0  0  0  0  0  0  0  0  0  0  0  0
    3.1012   -5.6130    5.5712 N   0  0  2  0  0  0  0  0  0  0  0  0
    2.5546   -6.9405    5.9499 C   0  0  0  0  0  0  0  0  0  0  0  0
    1.6767   -7.6100    4.8457 C   0  0  0  0  0  0  0  0  0  0  0  0
    2.3516   -7.9226    3.4721 C   0  0  1  0  0  0  0  0  0  0  0  0
    3.5908   -8.8063    3.7037 C   0  0  0  0  0  0  0  0  0  0  0  0
    4.5511   -9.0177    2.5003 C   0  0  1  0  0  0  0  0  0  0  0  0
    3.7295   -8.9447    1.1925 C   0  0  0  0  0  0  0  0  0  0  0  0
    2.3585   -9.4544    1.4199 N   0  0  0  0  0  0  0  0  0  0  0  0
    1.4983   -8.8359    2.4692 C   0  0  1  0  0  0  0  0  0  0  0  0
    0.5942   -9.9589    3.0810 C   0  0  0  0  0  0  0  0  0  0  0  0
   -0.5736   -9.4116    3.6856 O   0  0  0  0  0  0  0  0  0  0  0  0
    6.0102   -8.3526    2.5820 C   0  0  2  0  0  0  0  0  0  0  0  0
    6.6147   -8.8382    1.3748 O   0  0  0  0  0  0  0  0  0  0  0  0
    7.8153   -8.2303    0.9083 C   0  0  0  0  0  0  0  0  0  0  0  0
    6.8411   -8.9970    3.7914 C   0  0  2  0  0  0  0  0  0  0  0  0
    6.2087  -10.0210    4.7705 C   0  0  0  0  0  0  0  0  0  0  0  0
    5.7387   -9.2150    5.9855 C   0  0  0  0  0  0  0  0  0  0  0  0
    6.3042   -7.8005    5.7620 C   0  0  1  0  0  0  0  0  0  0  0  0
    7.3090   -8.0487    4.7576 O   0  0  0  0  0  0  0  0  0  0  0  0
    5.5203   -6.5894    5.1739 C   0  0  2  0  0  0  0  0  0  0  0  0
    4.5945   -5.4456    5.6570 C   0  0  1  0  0  0  0  0  0  0  0  0
    5.1026   -4.7907    4.3181 C   0  0  0  0  0  0  0  0  0  0  0  0
    5.1684   -6.2409    3.6978 C   0  0  2  0  0  0  0  0  0  0  0  0
    4.0205   -6.0811    2.7377 C   0  0  0  0  0  0  0  0  0  0  0  0
    2.6982   -6.5773    2.7840 C   0  0  0  0  0  0  0  0  0  0  0  0
    1.7215   -6.0199    1.9243 C   0  0  0  0  0  0  0  0  0  0  0  0
    2.2270   -5.2914    0.8002 C   0  0  0  0  0  0  0  0  0  0  0  0
    3.6131   -5.2033    0.5340 C   0  0  0  0  0  0  0  0  0  0  0  0
    4.0924   -4.6624   -0.6346 O   0  0  0  0  0  0  0  0  0  0  0  0
    4.4816   -5.6808    1.5075 C   0  0  0  0  0  0  0  0  0  0  0  0
    5.8131   -5.9980    1.4298 O   0  0  0  0  0  0  0  0  0  0  0  0
    6.1416   -6.7485    2.6338 C   0  0  2  0  0  0  0  0  0  0  0  0
    3.3515   -2.1325    7.2939 H   0  0  0  0  0  0  0  0  0  0  0  0
    3.2408   -1.1413    5.7375 H   0  0  0  0  0  0  0  0  0  0  0  0
    2.3543   -3.0296    4.5345 H   0  0  0  0  0  0  0  0  0  0  0  0
    2.5462   -4.4728    7.2706 H   0  0  0  0  0  0  0  0  0  0  0  0
    1.2709   -4.6828    6.0990 H   0  0  0  0  0  0  0  0  0  0  0  0
    3.3366   -7.6034    6.2970 H   0  0  0  0  0  0  0  0  0  0  0  0
    1.9354   -6.8316    6.8358 H   0  0  0  0  0  0  0  0  0  0  0  0
    1.3153   -8.5365    5.2853 H   0  0  0  0  0  0  0  0  0  0  0  0
    0.7833   -7.0145    4.6681 H   0  0  0  0  0  0  0  0  0  0  0  0
    4.1277   -8.3268    4.4613 H   0  0  0  0  0  0  0  0  0  0  0  0
    3.3068   -9.7692    4.1395 H   0  0  0  0  0  0  0  0  0  0  0  0
    4.7666  -10.0830    2.4979 H   0  0  0  0  0  0  0  0  0  0  0  0
    3.7088   -7.9468    0.7703 H   0  0  0  0  0  0  0  0  0  0  0  0
    4.2202   -9.5557    0.4323 H   0  0  0  0  0  0  0  0  0  0  0  0
    1.8434   -9.4974    0.5459 H   0  0  0  0  0  0  0  0  0  0  0  0
    0.7539   -8.2444    1.9482 H   0  0  0  0  0  0  0  0  0  0  0  0
    0.2446  -10.6239    2.2893 H   0  0  0  0  0  0  0  0  0  0  0  0
    1.1319  -10.5911    3.7858 H   0  0  0  0  0  0  0  0  0  0  0  0
   -1.0688  -10.0968    4.1430 H   0  0  0  0  0  0  0  0  0  0  0  0
    8.2019   -8.8159    0.0747 H   0  0  0  0  0  0  0  0  0  0  0  0
    8.5833   -8.1794    1.6795 H   0  0  0  0  0  0  0  0  0  0  0  0
    7.6757   -7.2316    0.4999 H   0  0  0  0  0  0  0  0  0  0  0  0
    7.7232   -9.4760    3.3665 H   0  0  0  0  0  0  0  0  0  0  0  0
    5.4513  -10.6935    4.3736 H   0  0  0  0  0  0  0  0  0  0  0  0
    7.0024  -10.6826    5.1227 H   0  0  0  0  0  0  0  0  0  0  0  0
    4.6791   -9.2782    6.1922 H   0  0  0  0  0  0  0  0  0  0  0  0
    6.2165   -9.6386    6.8667 H   0  0  0  0  0  0  0  0  0  0  0  0
    6.8102   -7.5005    6.6863 H   0  0  0  0  0  0  0  0  0  0  0  0
    6.4763   -6.0658    5.3053 H   0  0  0  0  0  0  0  0  0  0  0  0
    4.9515   -4.9342    6.5495 H   0  0  0  0  0  0  0  0  0  0  0  0
    4.4401   -4.0638    3.8474 H   0  0  0  0  0  0  0  0  0  0  0  0
    6.0684   -4.3019    4.4221 H   0  0  0  0  0  0  0  0  0  0  0  0
    0.6755   -6.2554    2.0041 H   0  0  0  0  0  0  0  0  0  0  0  0
    1.5432   -4.8943    0.0837 H   0  0  0  0  0  0  0  0  0  0  0  0
    3.5419   -4.8605   -1.3768 H   0  0  0  0  0  0  0  0  0  0  0  0
    7.1655   -6.4712    2.8807 H   0  0  0  0  0  0  0  0  0  0  0  0
    2.8999   -5.5614    4.5691 H   0  0  0  0  0  0  0  0  0  0  0  0
  1  2  2  0
  1 36  1  0
  1 37  1  0
  2  3  1  0
  2 38  1  0
  3  4  1  0
  3 39  1  0
  3 40  1  0
  4 24  1  0
  4  5  1  0
  4 72  1  6
  5  6  1  0
  5 41  1  0
  5 42  1  0
  7  6  1  1
  6 43  1  0
  6 44  1  0
  7 12  1  0
  7 28  1  0
  7  8  1  0
  8  9  1  0
  8 45  1  0
  8 46  1  0
  9 10  1  0
  9 15  1  0
  9 47  1  1
 10 11  1  0
 10 48  1  0
 10 49  1  0
 11 12  1  0
 11 50  1  0
 12 13  1  0
 12 51  1  6
 13 14  1  0
 13 52  1  0
 13 53  1  0
 14 54  1  0
 15 35  1  0
 15 16  1  6
 15 18  1  0
 16 17  1  0
 17 55  1  0
 17 56  1  0
 17 57  1  0
 18 22  1  0
 18 19  1  0
 18 58  1  6
 19 20  1  0
 19 59  1  0
 19 60  1  0
 20 21  1  0
 20 61  1  0
 20 62  1  0
 21 22  1  0
 21 23  1  0
 21 63  1  1
 23 26  1  0
 23 24  1  0
 23 64  1  6
 24 25  1  0
 24 65  1  1
 26 25  1  1
 25 66  1  0
 25 67  1  0
 26 35  1  0
 26 27  1  0
 27 33  2  0
 27 28  1  0
 28 29  2  0
 29 30  1  0
 29 68  1  0
 30 31  2  0
 30 69  1  0
 31 32  1  0
 31 33  1  0
 32 70  1  0
 33 34  1  0
 34 35  1  0
 35 71  1  1
M  CHG  1   4   1
M  END
>  <i_m_ct_stereo_status>  (132) 
1

>  <s_m_source_file>  (132) 
/var/tmp/pbs.5076255.sched01/tmpgskxq70o/44i51uky9l.sdf

>  <i_m_source_file_index>  (132) 
27

>  <i_lp_mmshare_version>  (132) 
48012

>  <i_f3d_flags>  (132) 
0

>  <s_epik_input>  (132) 
W0NIMl09W0NIXVtDSDJdTihbQ0gyXVtDSDJdMSlbQ0BIXShbQ0gyXTIpW0NASF0oW0NAQF0yM2M0YzVbQ0BdMTY3KVtDQEhdOFtDSDJdW0NIMl1bQ0hdKE84KVtDQEBdKE9bQ0gzXSkoW0NAQEhdKFtDSDJdNilbQ0gyXVtOSF1bQ0BIXTdbQ0gyXVtPSF0pW0NASF0zT2M0YyhbT0hdKVtjSF1bY0hdNQ==

>  <s_epik_cmdline>  (132) 
J2VwaWtfcHl0aG9uJywgJy1waHQnLCAnMi4wJywgJy1waCcsICc3LjAnLCAnLXRuJywgJzgnLCAnLW1hJywgJzIwMCcsICctaW1hZScsICc8aW5maWxlLm1hZT4nLCAnLW9tYWUnLCAnPG91dGZpbGUubWFlPic=

>  <r_epik_Ionization_Penalty>  (132) 
1.99884

>  <r_epik_Ionization_Penalty_Charging>  (132) 
0.0673165

>  <r_epik_Ionization_Penalty_Neutral>  (132) 
1.93153

>  <r_epik_State_Penalty>  (132) 
2.18229

>  <r_epik_Charging_Adjusted_Penalty>  (132) 
2.24961

>  <i_epik_Tot_Q>  (132) 
1

>  <i_epik_Tot_abs_Q>  (132) 
1

>  <s_lp_Force_Field>  (132) 
OPLS3e

>  <r_lp_Energy>  (132) 
224.167

>  <b_lp_Chiralities_Consistent>  (132) 
1

>  <s_lp_Variant>  (132) 
42:0-5

>  <s_i_glide_gridfile>  (132) 
pfpi4k_grid

>  <i_i_glide_lignum>  (132) 
27

>  <i_i_glide_rotatable_bonds>  (132) 
6

>  <r_i_docking_score>  (132) 
-2.54954

>  <r_i_glide_ligand_efficiency>  (132) 
-0.0728441

>  <r_i_glide_ligand_efficiency_sa>  (132) 
-0.238278

>  <r_i_glide_ligand_efficiency_ln>  (132) 
-0.559681

>  <r_i_glide_gscore>  (132) 
-2.54954

>  <r_i_glide_lipo>  (132) 
-0.113916

>  <r_i_glide_hbond>  (132) 
-0.410699

>  <r_i_glide_metal>  (132) 
-0

>  <r_i_glide_rewards>  (132) 
-0.125429

>  <r_i_glide_evdw>  (132) 
-18.245

>  <r_i_glide_ecoul>  (132) 
-8.33104

>  <r_i_glide_erotb>  (132) 
0.262404

>  <r_i_glide_esite>  (132) 
0

>  <r_i_glide_emodel>  (132) 
-31.0938

>  <r_i_glide_energy>  (132) 
-26.576

>  <r_i_glide_einternal>  (132) 
1.95517

>  <r_i_glide_intrahb_reward>  (132) 
-0

>  <i_i_glide_confnum>  (132) 
2

>  <i_i_glide_posenum>  (132) 
6

>  <r_i_glide_eff_state_penalty>  (132) 
0

>  <ligand_id>  (132) 
42

>  <original_smiles>  (132) 
C=CCN1CCC23CC(CNC2CO)C2(OC)C4CCC(O4)C4C1CC41c4c3ccc(O)c4OC12

>  <smiles>  (132) 
[H]Oc1c([H])c([H])c2c3c1OC1([H])C4(OC([H])([H])[H])C5([H])OC([H])(C([H])([H])C5([H])[H])C5([H])C31C([H])([H])C5([H])[N+]([H])(C([H])([H])C([H])=C([H])[H])C([H])([H])C([H])([H])C21C([H])([H])C4([H])C([H])([H])N([H])C1([H])C([H])([H])O[H]

$$$$
42:4:2
     RDKit          3D

 72 79  0  0  1  0  0  0  0  0999 V2000
    3.2758   -1.5334    5.4416 C   0  0  0  0  0  0  0  0  0  0  0  0
    2.6277   -2.5803    4.9031 C   0  0  0  0  0  0  0  0  0  0  0  0
    1.8953   -3.6422    5.7052 C   0  0  0  0  0  0  0  0  0  0  0  0
    2.4187   -5.0232    5.4977 N   0  0  2  0  0  0  0  0  0  0  0  0
    1.4670   -6.0533    6.0085 C   0  0  0  0  0  0  0  0  0  0  0  0
    0.6365   -6.7635    4.8838 C   0  0  0  0  0  0  0  0  0  0  0  0
    1.4204   -7.5679    3.7931 C   0  0  1  0  0  0  0  0  0  0  0  0
    2.3210   -8.6116    4.4795 C   0  0  0  0  0  0  0  0  0  0  0  0
    3.3704   -9.3423    3.5938 C   0  0  1  0  0  0  0  0  0  0  0  0
    2.8366   -9.4200    2.1414 C   0  0  0  0  0  0  0  0  0  0  0  0
    1.3607   -9.5365    2.1342 N   0  0  0  0  0  0  0  0  0  0  0  0
    0.5503   -8.4910    2.8200 C   0  0  1  0  0  0  0  0  0  0  0  0
   -0.7215   -9.1493    3.4203 C   0  0  0  0  0  0  0  0  0  0  0  0
   -1.7695   -8.1995    3.4970 O   0  0  0  0  0  0  0  0  0  0  0  0
    4.9242   -9.0268    3.8759 C   0  0  2  0  0  0  0  0  0  0  0  0
    5.5751   -9.9293    2.9702 O   0  0  0  0  0  0  0  0  0  0  0  0
    6.9877   -9.8578    2.7863 C   0  0  0  0  0  0  0  0  0  0  0  0
    5.3164   -9.5119    5.3534 C   0  0  2  0  0  0  0  0  0  0  0  0
    4.2726  -10.0788    6.3448 C   0  0  0  0  0  0  0  0  0  0  0  0
    3.8510   -8.9033    7.2290 C   0  0  0  0  0  0  0  0  0  0  0  0
    4.8122   -7.7639    6.8535 C   0  0  1  0  0  0  0  0  0  0  0  0
    5.8620   -8.4870    6.1898 O   0  0  0  0  0  0  0  0  0  0  0  0
    4.5196   -6.5894    5.8674 C   0  0  2  0  0  0  0  0  0  0  0  0
    3.8702   -5.1848    5.8812 C   0  0  1  0  0  0  0  0  0  0  0  0
    4.7637   -5.0216    4.5946 C   0  0  0  0  0  0  0  0  0  0  0  0
    4.5278   -6.5617    4.3111 C   0  0  2  0  0  0  0  0  0  0  0  0
    3.6257   -6.4131    3.1054 C   0  0  0  0  0  0  0  0  0  0  0  0
    2.2349   -6.5570    2.9562 C   0  0  0  0  0  0  0  0  0  0  0  0
    1.6173   -6.0136    1.7990 C   0  0  0  0  0  0  0  0  0  0  0  0
    2.4689   -5.7067    0.7111 C   0  0  0  0  0  0  0  0  0  0  0  0
    3.8449   -6.0179    0.7463 C   0  0  0  0  0  0  0  0  0  0  0  0
    4.6325   -5.9148   -0.3529 O   0  0  0  0  0  0  0  0  0  0  0  0
    4.3759   -6.4487    1.9676 C   0  0  0  0  0  0  0  0  0  0  0  0
    5.5618   -7.0709    2.2425 O   0  0  0  0  0  0  0  0  0  0  0  0
    5.4819   -7.5371    3.6222 C   0  0  2  0  0  0  0  0  0  0  0  0
    3.3258   -1.3753    6.5139 H   0  0  0  0  0  0  0  0  0  0  0  0
    3.7711   -0.8080    4.8069 H   0  0  0  0  0  0  0  0  0  0  0  0
    2.6133   -2.6816    3.8269 H   0  0  0  0  0  0  0  0  0  0  0  0
    1.9197   -3.3948    6.7657 H   0  0  0  0  0  0  0  0  0  0  0  0
    0.8530   -3.5980    5.3901 H   0  0  0  0  0  0  0  0  0  0  0  0
    1.9739   -6.7655    6.6481 H   0  0  0  0  0  0  0  0  0  0  0  0
    0.7634   -5.5780    6.6890 H   0  0  0  0  0  0  0  0  0  0  0  0
   -0.0426   -7.4398    5.4036 H   0  0  0  0  0  0  0  0  0  0  0  0
   -0.0109   -6.0372    4.3928 H   0  0  0  0  0  0  0  0  0  0  0  0
    2.8322   -8.0909    5.2290 H   0  0  0  0  0  0  0  0  0  0  0  0
    1.7131   -9.3387    5.0220 H   0  0  0  0  0  0  0  0  0  0  0  0
    3.2783  -10.3925    3.8638 H   0  0  0  0  0  0  0  0  0  0  0  0
    3.1398   -8.5789    1.5314 H   0  0  0  0  0  0  0  0  0  0  0  0
    3.2705  -10.2917    1.6507 H   0  0  0  0  0  0  0  0  0  0  0  0
    1.0131   -9.6722    1.1859 H   0  0  0  0  0  0  0  0  0  0  0  0
    0.1089   -7.8978    2.0287 H   0  0  0  0  0  0  0  0  0  0  0  0
   -1.0761   -9.9601    2.7846 H   0  0  0  0  0  0  0  0  0  0  0  0
   -0.5392   -9.5990    4.3939 H   0  0  0  0  0  0  0  0  0  0  0  0
   -2.2975   -8.2955    2.7160 H   0  0  0  0  0  0  0  0  0  0  0  0
    7.2981  -10.7250    2.2032 H   0  0  0  0  0  0  0  0  0  0  0  0
    7.5475   -9.8803    3.7203 H   0  0  0  0  0  0  0  0  0  0  0  0
    7.2893   -8.9737    2.2249 H   0  0  0  0  0  0  0  0  0  0  0  0
    6.0789  -10.2836    5.2685 H   0  0  0  0  0  0  0  0  0  0  0  0
    3.4412  -10.6438    5.9303 H   0  0  0  0  0  0  0  0  0  0  0  0
    4.7816  -10.7978    6.9901 H   0  0  0  0  0  0  0  0  0  0  0  0
    2.7942   -8.6709    7.1988 H   0  0  0  0  0  0  0  0  0  0  0  0
    4.0389   -9.1903    8.2630 H   0  0  0  0  0  0  0  0  0  0  0  0
    5.2183   -7.3625    7.7873 H   0  0  0  0  0  0  0  0  0  0  0  0
    5.5503   -6.2911    6.1181 H   0  0  0  0  0  0  0  0  0  0  0  0
    4.1844   -4.5622    6.7168 H   0  0  0  0  0  0  0  0  0  0  0  0
    4.4070   -4.3085    3.8488 H   0  0  0  0  0  0  0  0  0  0  0  0
    5.8026   -4.7535    4.8123 H   0  0  0  0  0  0  0  0  0  0  0  0
    0.5498   -5.9832    1.6838 H   0  0  0  0  0  0  0  0  0  0  0  0
    2.0403   -5.3466   -0.2116 H   0  0  0  0  0  0  0  0  0  0  0  0
    4.1507   -5.8004   -1.1655 H   0  0  0  0  0  0  0  0  0  0  0  0
    6.4910   -7.4499    4.0345 H   0  0  0  0  0  0  0  0  0  0  0  0
    2.4131   -5.1802    4.4970 H   0  0  0  0  0  0  0  0  0  0  0  0
  1  2  2  0
  1 36  1  0
  1 37  1  0
  2  3  1  0
  2 38  1  0
  3  4  1  0
  3 39  1  0
  3 40  1  0
  4 24  1  0
  4  5  1  0
  4 72  1  6
  5  6  1  0
  5 41  1  0
  5 42  1  0
  7  6  1  1
  6 43  1  0
  6 44  1  0
  7 12  1  0
  7 28  1  0
  7  8  1  0
  8  9  1  0
  8 45  1  0
  8 46  1  0
  9 10  1  0
  9 15  1  0
  9 47  1  1
 10 11  1  0
 10 48  1  0
 10 49  1  0
 11 12  1  0
 11 50  1  0
 12 13  1  0
 12 51  1  6
 13 14  1  0
 13 52  1  0
 13 53  1  0
 14 54  1  0
 15 35  1  0
 15 16  1  6
 15 18  1  0
 16 17  1  0
 17 55  1  0
 17 56  1  0
 17 57  1  0
 18 22  1  0
 18 19  1  0
 18 58  1  6
 19 20  1  0
 19 59  1  0
 19 60  1  0
 20 21  1  0
 20 61  1  0
 20 62  1  0
 21 22  1  0
 21 23  1  0
 21 63  1  1
 23 26  1  0
 23 24  1  0
 23 64  1  1
 24 25  1  0
 24 65  1  1
 26 25  1  1
 25 66  1  0
 25 67  1  0
 26 35  1  0
 26 27  1  0
 27 33  2  0
 27 28  1  0
 28 29  2  0
 29 30  1  0
 29 68  1  0
 30 31  2  0
 30 69  1  0
 31 32  1  0
 31 33  1  0
 32 70  1  0
 33 34  1  0
 34 35  1  0
 35 71  1  1
M  CHG  1   4   1
M  END
>  <i_m_ct_stereo_status>  (133) 
1

>  <s_m_source_file>  (133) 
/var/tmp/pbs.5076255.sched01/tmpgskxq70o/44i51uky9l.sdf

>  <i_m_source_file_index>  (133) 
27

>  <i_lp_mmshare_version>  (133) 
48012

>  <i_f3d_flags>  (133) 
0

>  <s_epik_input>  (133) 
W0NIMl09W0NIXVtDSDJdTihbQ0gyXVtDSDJdMSlbQ0BIXShbQ0gyXTIpW0NASF0oW0NAQF0yM2M0YzVbQ0BdMTY3KVtDQEhdOFtDSDJdW0NIMl1bQ0hdKE84KVtDQEBdKE9bQ0gzXSkoW0NAQEhdKFtDSDJdNilbQ0gyXVtOSF1bQ0BIXTdbQ0gyXVtPSF0pW0NASF0zT2M0YyhbT0hdKVtjSF1bY0hdNQ==

>  <s_epik_cmdline>  (133) 
J2VwaWtfcHl0aG9uJywgJy1waHQnLCAnMi4wJywgJy1waCcsICc3LjAnLCAnLXRuJywgJzgnLCAnLW1hJywgJzIwMCcsICctaW1hZScsICc8aW5maWxlLm1hZT4nLCAnLW9tYWUnLCAnPG91dGZpbGUubWFlPic=

>  <r_epik_Ionization_Penalty>  (133) 
1.99884

>  <r_epik_Ionization_Penalty_Charging>  (133) 
0.0673165

>  <r_epik_Ionization_Penalty_Neutral>  (133) 
1.93153

>  <r_epik_State_Penalty>  (133) 
2.18229

>  <r_epik_Charging_Adjusted_Penalty>  (133) 
2.24961

>  <i_epik_Tot_Q>  (133) 
1

>  <i_epik_Tot_abs_Q>  (133) 
1

>  <s_lp_Force_Field>  (133) 
OPLS3e

>  <r_lp_Energy>  (133) 
224.167

>  <b_lp_Chiralities_Consistent>  (133) 
1

>  <s_lp_Variant>  (133) 
42:0-5

>  <s_i_glide_gridfile>  (133) 
pfpi4k_grid

>  <i_i_glide_lignum>  (133) 
27

>  <i_i_glide_rotatable_bonds>  (133) 
6

>  <r_i_docking_score>  (133) 
-2.28709

>  <r_i_glide_ligand_efficiency>  (133) 
-0.0653454

>  <r_i_glide_ligand_efficiency_sa>  (133) 
-0.213749

>  <r_i_glide_ligand_efficiency_ln>  (133) 
-0.502067

>  <r_i_glide_gscore>  (133) 
-2.28709

>  <r_i_glide_lipo>  (133) 
-0.112596

>  <r_i_glide_hbond>  (133) 
-0.304

>  <r_i_glide_metal>  (133) 
-0

>  <r_i_glide_rewards>  (133) 
-0.125429

>  <r_i_glide_evdw>  (133) 
-19.5681

>  <r_i_glide_ecoul>  (133) 
-6.86039

>  <r_i_glide_erotb>  (133) 
0.262404

>  <r_i_glide_esite>  (133) 
0

>  <r_i_glide_emodel>  (133) 
-31.3168

>  <r_i_glide_energy>  (133) 
-26.4285

>  <r_i_glide_einternal>  (133) 
1.0104

>  <r_i_glide_intrahb_reward>  (133) 
-0

>  <i_i_glide_confnum>  (133) 
2

>  <i_i_glide_posenum>  (133) 
26

>  <r_i_glide_eff_state_penalty>  (133) 
0

>  <ligand_id>  (133) 
42

>  <original_smiles>  (133) 
C=CCN1CCC23CC(CNC2CO)C2(OC)C4CCC(O4)C4C1CC41c4c3ccc(O)c4OC12

>  <smiles>  (133) 
[H]Oc1c([H])c([H])c2c3c1OC1([H])C4(OC([H])([H])[H])C5([H])OC([H])(C([H])([H])C5([H])[H])C5([H])C31C([H])([H])C5([H])[N+]([H])(C([H])([H])C([H])=C([H])[H])C([H])([H])C([H])([H])C21C([H])([H])C4([H])C([H])([H])N([H])C1([H])C([H])([H])O[H]

$$$$
42:5:0
     RDKit          3D

 72 79  0  0  1  0  0  0  0  0999 V2000
    7.2751   -6.0902    0.5010 C   0  0  0  0  0  0  0  0  0  0  0  0
    6.0509   -6.2487    1.0234 C   0  0  0  0  0  0  0  0  0  0  0  0
    5.5295   -7.5384    1.6447 C   0  0  0  0  0  0  0  0  0  0  0  0
    4.0776   -7.7813    1.4053 N   0  0  1  0  0  0  0  0  0  0  0  0
    3.6218   -9.1960    1.5678 C   0  0  0  0  0  0  0  0  0  0  0  0
    4.1326  -10.0523    2.7776 C   0  0  0  0  0  0  0  0  0  0  0  0
    3.5981   -9.7514    4.2188 C   0  0  1  0  0  0  0  0  0  0  0  0
    2.0662   -9.6197    4.2360 C   0  0  0  0  0  0  0  0  0  0  0  0
    1.4103   -8.9810    5.5045 C   0  0  1  0  0  0  0  0  0  0  0  0
    2.3060   -9.3337    6.7325 C   0  0  0  0  0  0  0  0  0  0  0  0
    3.0110  -10.6425    6.5840 N   0  0  0  0  0  0  0  0  0  0  0  0
    3.7775  -10.9053    5.3141 C   0  0  1  0  0  0  0  0  0  0  0  0
    3.4787  -12.3684    4.8928 C   0  0  0  0  0  0  0  0  0  0  0  0
    4.2194  -13.2702    5.7200 O   0  0  0  0  0  0  0  0  0  0  0  0
    0.7337   -7.5135    5.3194 C   0  0  2  0  0  0  0  0  0  0  0  0
    0.1975   -7.1758    6.6144 O   0  0  0  0  0  0  0  0  0  0  0  0
   -0.4373   -5.8916    6.8097 C   0  0  0  0  0  0  0  0  0  0  0  0
   -0.5076   -7.6000    4.2973 C   0  0  2  0  0  0  0  0  0  0  0  0
   -0.8605   -8.9062    3.5619 C   0  0  0  0  0  0  0  0  0  0  0  0
   -0.2068   -8.7879    2.1936 C   0  0  0  0  0  0  0  0  0  0  0  0
    0.3256   -7.3475    2.1073 C   0  0  1  0  0  0  0  0  0  0  0  0
   -0.4245   -6.7203    3.1625 O   0  0  0  0  0  0  0  0  0  0  0  0
    1.7975   -6.9061    2.4083 C   0  0  2  0  0  0  0  0  0  0  0  0
    3.1048   -6.6476    1.6321 C   0  0  1  0  0  0  0  0  0  0  0  0
    3.4202   -5.7447    2.8746 C   0  0  0  0  0  0  0  0  0  0  0  0
    2.5509   -6.7004    3.7644 C   0  0  2  0  0  0  0  0  0  0  0  0
    3.6642   -7.2150    4.6413 C   0  0  0  0  0  0  0  0  0  0  0  0
    4.3172   -8.4560    4.6632 C   0  0  0  0  0  0  0  0  0  0  0  0
    5.5475   -8.5745    5.3606 C   0  0  0  0  0  0  0  0  0  0  0  0
    5.8251   -7.5373    6.3034 C   0  0  0  0  0  0  0  0  0  0  0  0
    4.8839   -6.5309    6.6033 C   0  0  0  0  0  0  0  0  0  0  0  0
    5.0733   -5.6686    7.6542 O   0  0  0  0  0  0  0  0  0  0  0  0
    3.7593   -6.4415    5.7745 C   0  0  0  0  0  0  0  0  0  0  0  0
    2.5797   -5.7830    5.9449 O   0  0  0  0  0  0  0  0  0  0  0  0
    1.6724   -6.2796    4.9183 C   0  0  2  0  0  0  0  0  0  0  0  0
    8.0060   -6.8862    0.4722 H   0  0  0  0  0  0  0  0  0  0  0  0
    7.5670   -5.1328    0.0988 H   0  0  0  0  0  0  0  0  0  0  0  0
    5.3998   -5.3882    1.0259 H   0  0  0  0  0  0  0  0  0  0  0  0
    6.1007   -8.3682    1.2264 H   0  0  0  0  0  0  0  0  0  0  0  0
    5.7628   -7.5199    2.7053 H   0  0  0  0  0  0  0  0  0  0  0  0
    2.5523   -9.2842    1.4177 H   0  0  0  0  0  0  0  0  0  0  0  0
    4.0097   -9.6970    0.6829 H   0  0  0  0  0  0  0  0  0  0  0  0
    3.8483  -11.0555    2.4807 H   0  0  0  0  0  0  0  0  0  0  0  0
    5.2213  -10.0873    2.7858 H   0  0  0  0  0  0  0  0  0  0  0  0
    1.8416   -9.0118    3.4147 H   0  0  0  0  0  0  0  0  0  0  0  0
    1.5928  -10.5763    3.9960 H   0  0  0  0  0  0  0  0  0  0  0  0
    0.5651   -9.6234    5.7370 H   0  0  0  0  0  0  0  0  0  0  0  0
    3.0335   -8.5630    6.9673 H   0  0  0  0  0  0  0  0  0  0  0  0
    1.6860   -9.3868    7.6313 H   0  0  0  0  0  0  0  0  0  0  0  0
    3.6414  -10.7681    7.3673 H   0  0  0  0  0  0  0  0  0  0  0  0
    4.8202  -10.9627    5.5964 H   0  0  0  0  0  0  0  0  0  0  0  0
    2.4175  -12.6037    4.9686 H   0  0  0  0  0  0  0  0  0  0  0  0
    3.7737  -12.6108    3.8786 H   0  0  0  0  0  0  0  0  0  0  0  0
    3.5807  -13.7600    6.2523 H   0  0  0  0  0  0  0  0  0  0  0  0
   -0.7768   -5.7979    7.8398 H   0  0  0  0  0  0  0  0  0  0  0  0
   -1.3149   -5.7360    6.1861 H   0  0  0  0  0  0  0  0  0  0  0  0
    0.2147   -5.0358    6.6507 H   0  0  0  0  0  0  0  0  0  0  0  0
   -1.4250   -7.3547    4.8294 H   0  0  0  0  0  0  0  0  0  0  0  0
   -0.6345   -9.8360    4.0677 H   0  0  0  0  0  0  0  0  0  0  0  0
   -1.9416   -8.9245    3.4003 H   0  0  0  0  0  0  0  0  0  0  0  0
    0.4988   -9.5849    1.9812 H   0  0  0  0  0  0  0  0  0  0  0  0
   -1.0083   -8.8993    1.4648 H   0  0  0  0  0  0  0  0  0  0  0  0
   -0.0021   -6.9348    1.1440 H   0  0  0  0  0  0  0  0  0  0  0  0
    1.3897   -5.8954    2.2590 H   0  0  0  0  0  0  0  0  0  0  0  0
    2.9662   -6.0392    0.7296 H   0  0  0  0  0  0  0  0  0  0  0  0
    4.4626   -5.6008    3.1586 H   0  0  0  0  0  0  0  0  0  0  0  0
    2.9951   -4.7467    2.7874 H   0  0  0  0  0  0  0  0  0  0  0  0
    6.1795   -9.4468    5.3022 H   0  0  0  0  0  0  0  0  0  0  0  0
    6.7289   -7.6013    6.8820 H   0  0  0  0  0  0  0  0  0  0  0  0
    1.0656   -5.4264    4.6107 H   0  0  0  0  0  0  0  0  0  0  0  0
    2.3047  -11.3681    6.7138 H   0  0  0  0  0  0  0  0  0  0  0  0
    4.0716   -7.7425    0.3984 H   0  0  0  0  0  0  0  0  0  0  0  0
  1  2  2  0
  1 36  1  0
  1 37  1  0
  2  3  1  0
  2 38  1  0
  3  4  1  0
  3 39  1  0
  3 40  1  0
  4 24  1  0
  4  5  1  0
  4 72  1  6
  5  6  1  0
  5 41  1  0
  5 42  1  0
  7  6  1  6
  6 43  1  0
  6 44  1  0
  7 12  1  0
  7 28  1  0
  7  8  1  0
  8  9  1  0
  8 45  1  0
  8 46  1  0
  9 10  1  0
  9 15  1  0
  9 47  1  1
 10 11  1  0
 10 48  1  0
 10 49  1  0
 11 12  1  0
 11 50  1  0
 11 71  1  0
 12 13  1  0
 12 51  1  1
 13 14  1  0
 13 52  1  0
 13 53  1  0
 14 54  1  0
 15 35  1  0
 15 16  1  1
 15 18  1  0
 16 17  1  0
 17 55  1  0
 17 56  1  0
 17 57  1  0
 18 22  1  0
 18 19  1  0
 18 58  1  1
 19 20  1  0
 19 59  1  0
 19 60  1  0
 20 21  1  0
 20 61  1  0
 20 62  1  0
 21 22  1  0
 21 23  1  0
 21 63  1  6
 23 26  1  0
 23 24  1  0
 23 64  1  6
 24 25  1  0
 24 65  1  6
 26 25  1  6
 25 66  1  0
 25 67  1  0
 26 35  1  0
 26 27  1  0
 27 33  2  0
 27 28  1  0
 28 29  2  0
 29 30  1  0
 29 68  1  0
 30 31  2  0
 30 69  1  0
 31 32  1  0
 31 33  1  0
 33 34  1  0
 34 35  1  0
 35 70  1  6
M  CHG  3   4   1  11   1  32  -1
M  END
>  <i_m_ct_stereo_status>  (134) 
1

>  <s_m_source_file>  (134) 
/var/tmp/pbs.5076255.sched01/tmpgskxq70o/44i51uky9l.sdf

>  <i_m_source_file_index>  (134) 
28

>  <i_lp_mmshare_version>  (134) 
48012

>  <i_f3d_flags>  (134) 
0

>  <s_epik_input>  (134) 
W0NIMl09W0NIXVtDSDJdTihbQ0gyXVtDSDJdMSlbQ0BIXShbQ0gyXTIpW0NASF0oW0NAQF0yM2M0YzVbQ0BdMTY3KVtDQEhdOFtDSDJdW0NIMl1bQ0hdKE84KVtDQEBdKE9bQ0gzXSkoW0NAQEhdKFtDSDJdNilbQ0gyXVtOSF1bQ0BIXTdbQ0gyXVtPSF0pW0NASF0zT2M0YyhbT0hdKVtjSF1bY0hdNQ==

>  <s_epik_cmdline>  (134) 
J2VwaWtfcHl0aG9uJywgJy1waHQnLCAnMi4wJywgJy1waCcsICc3LjAnLCAnLXRuJywgJzgnLCAnLW1hJywgJzIwMCcsICctaW1hZScsICc8aW5maWxlLm1hZT4nLCAnLW9tYWUnLCAnPG91dGZpbGUubWFlPic=

>  <r_epik_Ionization_Penalty>  (134) 
2.34857

>  <r_epik_Ionization_Penalty_Charging>  (134) 
2.34857

>  <r_epik_Ionization_Penalty_Neutral>  (134) 
1.61083e-06

>  <r_epik_State_Penalty>  (134) 
2.46842

>  <r_epik_Charging_Adjusted_Penalty>  (134) 
4.81699

>  <i_epik_Tot_Q>  (134) 
1

>  <i_epik_Tot_abs_Q>  (134) 
3

>  <s_lp_Force_Field>  (134) 
OPLS3e

>  <r_lp_Energy>  (134) 
220.491

>  <b_lp_Chiralities_Consistent>  (134) 
1

>  <s_lp_Variant>  (134) 
42:0-6

>  <s_i_glide_gridfile>  (134) 
pfpi4k_grid

>  <i_i_glide_lignum>  (134) 
28

>  <i_i_glide_rotatable_bonds>  (134) 
5

>  <r_i_docking_score>  (134) 
-3.5791

>  <r_i_glide_ligand_efficiency>  (134) 
-0.10226

>  <r_i_glide_ligand_efficiency_sa>  (134) 
-0.334499

>  <r_i_glide_ligand_efficiency_ln>  (134) 
-0.785692

>  <r_i_glide_gscore>  (134) 
-3.5791

>  <r_i_glide_lipo>  (134) 
-0.235654

>  <r_i_glide_hbond>  (134) 
-0.52

>  <r_i_glide_metal>  (134) 
-0

>  <r_i_glide_rewards>  (134) 
-0.125429

>  <r_i_glide_evdw>  (134) 
-19.3532

>  <r_i_glide_ecoul>  (134) 
-12.6184

>  <r_i_glide_erotb>  (134) 
0.262404

>  <r_i_glide_esite>  (134) 
-0.1

>  <r_i_glide_emodel>  (134) 
-40.2326

>  <r_i_glide_energy>  (134) 
-31.9716

>  <r_i_glide_einternal>  (134) 
5.75227

>  <r_i_glide_intrahb_reward>  (134) 
-0

>  <i_i_glide_confnum>  (134) 
2

>  <i_i_glide_posenum>  (134) 
5

>  <r_i_glide_eff_state_penalty>  (134) 
0

>  <ligand_id>  (134) 
42

>  <original_smiles>  (134) 
C=CCN1CCC23CC(CNC2CO)C2(OC)C4CCC(O4)C4C1CC41c4c3ccc(O)c4OC12

>  <smiles>  (134) 
[H]OC([H])([H])C1([H])C23c4c([H])c([H])c([O-])c5c4C46C([H])([H])C([H])(C4([H])C4([H])OC([H])(C([H])([H])C4([H])[H])C(OC([H])([H])[H])(C6([H])O5)C([H])(C2([H])[H])C([H])([H])[N+]1([H])[H])[N+]([H])(C([H])([H])C([H])=C([H])[H])C([H])([H])C3([H])[H]

$$$$
42:5:1
     RDKit          3D

 72 79  0  0  1  0  0  0  0  0999 V2000
    7.1674   -5.8771    0.4791 C   0  0  0  0  0  0  0  0  0  0  0  0
    5.9124   -6.1182    0.8920 C   0  0  0  0  0  0  0  0  0  0  0  0
    5.4170   -7.4541    1.4338 C   0  0  0  0  0  0  0  0  0  0  0  0
    3.9613   -7.6881    1.2270 N   0  0  1  0  0  0  0  0  0  0  0  0
    3.5073   -9.0995    1.3649 C   0  0  0  0  0  0  0  0  0  0  0  0
    4.0357   -9.9771    2.5522 C   0  0  0  0  0  0  0  0  0  0  0  0
    3.5418   -9.6989    4.0103 C   0  0  1  0  0  0  0  0  0  0  0  0
    2.0078   -9.5629    4.0627 C   0  0  0  0  0  0  0  0  0  0  0  0
    1.3816   -8.9557    5.3587 C   0  0  1  0  0  0  0  0  0  0  0  0
    2.3014   -9.3328    6.5581 C   0  0  0  0  0  0  0  0  0  0  0  0
    3.0119  -10.6357    6.3679 N   0  0  0  0  0  0  0  0  0  0  0  0
    3.7323  -10.8767    5.0768 C   0  0  1  0  0  0  0  0  0  0  0  0
    3.4149  -12.3255    4.6020 C   0  0  0  0  0  0  0  0  0  0  0  0
    4.4041  -12.8417    3.7330 O   0  0  0  0  0  0  0  0  0  0  0  0
    0.7023   -7.4842    5.2086 C   0  0  2  0  0  0  0  0  0  0  0  0
    0.1886   -7.1754    6.5209 O   0  0  0  0  0  0  0  0  0  0  0  0
   -0.4356   -5.8913    6.7532 C   0  0  0  0  0  0  0  0  0  0  0  0
   -0.5607   -7.5575    4.2109 C   0  0  2  0  0  0  0  0  0  0  0  0
   -0.9322   -8.8481    3.4577 C   0  0  0  0  0  0  0  0  0  0  0  0
   -0.3058   -8.7080    2.0789 C   0  0  0  0  0  0  0  0  0  0  0  0
    0.2255   -7.2676    2.0086 C   0  0  1  0  0  0  0  0  0  0  0  0
   -0.5031   -6.6585    3.0908 O   0  0  0  0  0  0  0  0  0  0  0  0
    1.7018   -6.8350    2.2827 C   0  0  2  0  0  0  0  0  0  0  0  0
    2.9955   -6.5622    1.4898 C   0  0  1  0  0  0  0  0  0  0  0  0
    3.3356   -5.6809    2.7422 C   0  0  0  0  0  0  0  0  0  0  0  0
    2.4797   -6.6552    3.6253 C   0  0  2  0  0  0  0  0  0  0  0  0
    3.6157   -7.1708    4.4817 C   0  0  0  0  0  0  0  0  0  0  0  0
    4.2640   -8.4226    4.4565 C   0  0  0  0  0  0  0  0  0  0  0  0
    5.5168   -8.5520    5.1368 C   0  0  0  0  0  0  0  0  0  0  0  0
    5.8189   -7.5478    6.0765 C   0  0  0  0  0  0  0  0  0  0  0  0
    4.8825   -6.5252    6.4234 C   0  0  0  0  0  0  0  0  0  0  0  0
    5.0940   -5.6899    7.4831 O   0  0  0  0  0  0  0  0  0  0  0  0
    3.7413   -6.4347    5.6149 C   0  0  0  0  0  0  0  0  0  0  0  0
    2.5646   -5.7653    5.8262 O   0  0  0  0  0  0  0  0  0  0  0  0
    1.6349   -6.2479    4.8073 C   0  0  2  0  0  0  0  0  0  0  0  0
    7.9421   -6.6305    0.4918 H   0  0  0  0  0  0  0  0  0  0  0  0
    7.4339   -4.8859    0.1364 H   0  0  0  0  0  0  0  0  0  0  0  0
    5.2226   -5.2905    0.8512 H   0  0  0  0  0  0  0  0  0  0  0  0
    5.9784   -8.2470    0.9361 H   0  0  0  0  0  0  0  0  0  0  0  0
    5.6891   -7.5077    2.4809 H   0  0  0  0  0  0  0  0  0  0  0  0
    2.4342   -9.1920    1.2400 H   0  0  0  0  0  0  0  0  0  0  0  0
    3.8772   -9.5928    0.4676 H   0  0  0  0  0  0  0  0  0  0  0  0
    3.7117  -10.9718    2.2634 H   0  0  0  0  0  0  0  0  0  0  0  0
    5.1270  -10.0278    2.5328 H   0  0  0  0  0  0  0  0  0  0  0  0
    1.7678   -8.9437    3.2540 H   0  0  0  0  0  0  0  0  0  0  0  0
    1.5095  -10.5004    3.8064 H   0  0  0  0  0  0  0  0  0  0  0  0
    0.5372   -9.6016    5.5915 H   0  0  0  0  0  0  0  0  0  0  0  0
    3.0362   -8.5724    6.7878 H   0  0  0  0  0  0  0  0  0  0  0  0
    1.7006   -9.4045    7.4651 H   0  0  0  0  0  0  0  0  0  0  0  0
    3.6433  -10.7820    7.1364 H   0  0  0  0  0  0  0  0  0  0  0  0
    4.7769  -10.9685    5.3620 H   0  0  0  0  0  0  0  0  0  0  0  0
    3.4245  -12.9971    5.4623 H   0  0  0  0  0  0  0  0  0  0  0  0
    2.4198  -12.4195    4.1734 H   0  0  0  0  0  0  0  0  0  0  0  0
    4.1905  -12.6112    2.8403 H   0  0  0  0  0  0  0  0  0  0  0  0
   -0.7526   -5.8192    7.7928 H   0  0  0  0  0  0  0  0  0  0  0  0
   -1.3274   -5.7253    6.1501 H   0  0  0  0  0  0  0  0  0  0  0  0
    0.2172   -5.0356    6.5954 H   0  0  0  0  0  0  0  0  0  0  0  0
   -1.4644   -7.3225    4.7673 H   0  0  0  0  0  0  0  0  0  0  0  0
   -0.7062   -9.7939    3.9407 H   0  0  0  0  0  0  0  0  0  0  0  0
   -2.0145   -8.8603    3.3196 H   0  0  0  0  0  0  0  0  0  0  0  0
    0.4010   -9.4953    1.8455 H   0  0  0  0  0  0  0  0  0  0  0  0
   -1.1107   -8.8059    1.3522 H   0  0  0  0  0  0  0  0  0  0  0  0
   -0.1193   -6.8358    1.0626 H   0  0  0  0  0  0  0  0  0  0  0  0
    1.2935   -5.8207    2.1612 H   0  0  0  0  0  0  0  0  0  0  0  0
    2.8354   -5.9411    0.6039 H   0  0  0  0  0  0  0  0  0  0  0  0
    4.3865   -5.5461    3.0062 H   0  0  0  0  0  0  0  0  0  0  0  0
    2.9093   -4.6802    2.6786 H   0  0  0  0  0  0  0  0  0  0  0  0
    6.1427   -9.4279    5.0394 H   0  0  0  0  0  0  0  0  0  0  0  0
    6.7326   -7.6091    6.6446 H   0  0  0  0  0  0  0  0  0  0  0  0
    1.0241   -5.3896    4.5242 H   0  0  0  0  0  0  0  0  0  0  0  0
    2.2973  -11.3671    6.4939 H   0  0  0  0  0  0  0  0  0  0  0  0
    3.9339   -7.6312    0.2182 H   0  0  0  0  0  0  0  0  0  0  0  0
  1  2  2  0
  1 36  1  0
  1 37  1  0
  2  3  1  0
  2 38  1  0
  3  4  1  0
  3 39  1  0
  3 40  1  0
  4 24  1  0
  4  5  1  0
  4 72  1  6
  5  6  1  0
  5 41  1  0
  5 42  1  0
  7  6  1  6
  6 43  1  0
  6 44  1  0
  7 12  1  0
  7 28  1  0
  7  8  1  0
  8  9  1  0
  8 45  1  0
  8 46  1  0
  9 10  1  0
  9 15  1  0
  9 47  1  1
 10 11  1  0
 10 48  1  0
 10 49  1  0
 11 12  1  0
 11 50  1  0
 11 71  1  0
 12 13  1  0
 12 51  1  1
 13 14  1  0
 13 52  1  0
 13 53  1  0
 14 54  1  0
 15 35  1  0
 15 16  1  1
 15 18  1  0
 16 17  1  0
 17 55  1  0
 17 56  1  0
 17 57  1  0
 18 22  1  0
 18 19  1  0
 18 58  1  1
 19 20  1  0
 19 59  1  0
 19 60  1  0
 20 21  1  0
 20 61  1  0
 20 62  1  0
 21 22  1  0
 21 23  1  0
 21 63  1  6
 23 26  1  0
 23 24  1  0
 23 64  1  6
 24 25  1  0
 24 65  1  6
 26 25  1  6
 25 66  1  0
 25 67  1  0
 26 35  1  0
 26 27  1  0
 27 33  2  0
 27 28  1  0
 28 29  2  0
 29 30  1  0
 29 68  1  0
 30 31  2  0
 30 69  1  0
 31 32  1  0
 31 33  1  0
 33 34  1  0
 34 35  1  0
 35 70  1  6
M  CHG  3   4   1  11   1  32  -1
M  END
>  <i_m_ct_stereo_status>  (135) 
1

>  <s_m_source_file>  (135) 
/var/tmp/pbs.5076255.sched01/tmpgskxq70o/44i51uky9l.sdf

>  <i_m_source_file_index>  (135) 
28

>  <i_lp_mmshare_version>  (135) 
48012

>  <i_f3d_flags>  (135) 
0

>  <s_epik_input>  (135) 
W0NIMl09W0NIXVtDSDJdTihbQ0gyXVtDSDJdMSlbQ0BIXShbQ0gyXTIpW0NASF0oW0NAQF0yM2M0YzVbQ0BdMTY3KVtDQEhdOFtDSDJdW0NIMl1bQ0hdKE84KVtDQEBdKE9bQ0gzXSkoW0NAQEhdKFtDSDJdNilbQ0gyXVtOSF1bQ0BIXTdbQ0gyXVtPSF0pW0NASF0zT2M0YyhbT0hdKVtjSF1bY0hdNQ==

>  <s_epik_cmdline>  (135) 
J2VwaWtfcHl0aG9uJywgJy1waHQnLCAnMi4wJywgJy1waCcsICc3LjAnLCAnLXRuJywgJzgnLCAnLW1hJywgJzIwMCcsICctaW1hZScsICc8aW5maWxlLm1hZT4nLCAnLW9tYWUnLCAnPG91dGZpbGUubWFlPic=

>  <r_epik_Ionization_Penalty>  (135) 
2.34857

>  <r_epik_Ionization_Penalty_Charging>  (135) 
2.34857

>  <r_epik_Ionization_Penalty_Neutral>  (135) 
1.61083e-06

>  <r_epik_State_Penalty>  (135) 
2.46842

>  <r_epik_Charging_Adjusted_Penalty>  (135) 
4.81699

>  <i_epik_Tot_Q>  (135) 
1

>  <i_epik_Tot_abs_Q>  (135) 
3

>  <s_lp_Force_Field>  (135) 
OPLS3e

>  <r_lp_Energy>  (135) 
220.491

>  <b_lp_Chiralities_Consistent>  (135) 
1

>  <s_lp_Variant>  (135) 
42:0-6

>  <s_i_glide_gridfile>  (135) 
pfpi4k_grid

>  <i_i_glide_lignum>  (135) 
28

>  <i_i_glide_rotatable_bonds>  (135) 
5

>  <r_i_docking_score>  (135) 
-3.12841

>  <r_i_glide_ligand_efficiency>  (135) 
-0.0893831

>  <r_i_glide_ligand_efficiency_sa>  (135) 
-0.292378

>  <r_i_glide_ligand_efficiency_ln>  (135) 
-0.686755

>  <r_i_glide_gscore>  (135) 
-3.12841

>  <r_i_glide_lipo>  (135) 
-0.276448

>  <r_i_glide_hbond>  (135) 
-0.350365

>  <r_i_glide_metal>  (135) 
-0

>  <r_i_glide_rewards>  (135) 
-0.125429

>  <r_i_glide_evdw>  (135) 
-20.6654

>  <r_i_glide_ecoul>  (135) 
-10.06

>  <r_i_glide_erotb>  (135) 
0.262404

>  <r_i_glide_esite>  (135) 
-0.0963027

>  <r_i_glide_emodel>  (135) 
-38.0038

>  <r_i_glide_energy>  (135) 
-30.7254

>  <r_i_glide_einternal>  (135) 
4.73679

>  <r_i_glide_intrahb_reward>  (135) 
-0

>  <i_i_glide_confnum>  (135) 
4

>  <i_i_glide_posenum>  (135) 
18

>  <r_i_glide_eff_state_penalty>  (135) 
0

>  <ligand_id>  (135) 
42

>  <original_smiles>  (135) 
C=CCN1CCC23CC(CNC2CO)C2(OC)C4CCC(O4)C4C1CC41c4c3ccc(O)c4OC12

>  <smiles>  (135) 
[H]OC([H])([H])C1([H])C23c4c([H])c([H])c([O-])c5c4C46C([H])([H])C([H])(C4([H])C4([H])OC([H])(C([H])([H])C4([H])[H])C(OC([H])([H])[H])(C6([H])O5)C([H])(C2([H])[H])C([H])([H])[N+]1([H])[H])[N+]([H])(C([H])([H])C([H])=C([H])[H])C([H])([H])C3([H])[H]

$$$$
42:5:2
     RDKit          3D

 72 79  0  0  1  0  0  0  0  0999 V2000
    5.9953   -4.5598    0.3876 C   0  0  0  0  0  0  0  0  0  0  0  0
    5.5120   -5.1224    1.5055 C   0  0  0  0  0  0  0  0  0  0  0  0
    5.2160   -6.6013    1.7030 C   0  0  0  0  0  0  0  0  0  0  0  0
    3.7852   -6.9636    1.4814 N   0  0  1  0  0  0  0  0  0  0  0  0
    3.5160   -8.4273    1.3213 C   0  0  0  0  0  0  0  0  0  0  0  0
    4.2026   -9.4601    2.2798 C   0  0  0  0  0  0  0  0  0  0  0  0
    3.7346   -9.5685    3.7704 C   0  0  1  0  0  0  0  0  0  0  0  0
    2.1992   -9.6381    3.8640 C   0  0  0  0  0  0  0  0  0  0  0  0
    1.5715   -9.4397    5.2773 C   0  0  1  0  0  0  0  0  0  0  0  0
    2.6138   -9.8864    6.3490 C   0  0  0  0  0  0  0  0  0  0  0  0
    3.4211  -11.0466    5.8794 N   0  0  0  0  0  0  0  0  0  0  0  0
    4.1196  -10.9036    4.5479 C   0  0  1  0  0  0  0  0  0  0  0  0
    3.9413  -12.2489    3.7786 C   0  0  0  0  0  0  0  0  0  0  0  0
    5.0049  -12.4839    2.8725 O   0  0  0  0  0  0  0  0  0  0  0  0
    0.6925   -8.0881    5.4681 C   0  0  2  0  0  0  0  0  0  0  0  0
    0.2183   -8.0280    6.8216 O   0  0  0  0  0  0  0  0  0  0  0  0
   -0.4539   -9.1361    7.4317 C   0  0  0  0  0  0  0  0  0  0  0  0
   -0.5885   -8.0636    4.4965 C   0  0  2  0  0  0  0  0  0  0  0  0
   -0.8436   -9.1880    3.4703 C   0  0  0  0  0  0  0  0  0  0  0  0
   -0.2829   -8.6794    2.1438 C   0  0  0  0  0  0  0  0  0  0  0  0
    0.0640   -7.2081    2.3839 C   0  0  1  0  0  0  0  0  0  0  0  0
   -0.6759   -6.9508    3.5869 O   0  0  0  0  0  0  0  0  0  0  0  0
    1.4773   -6.6420    2.7267 C   0  0  2  0  0  0  0  0  0  0  0  0
    2.7045   -6.0535    2.0077 C   0  0  1  0  0  0  0  0  0  0  0  0
    2.9629   -5.4234    3.4169 C   0  0  0  0  0  0  0  0  0  0  0  0
    2.2650   -6.6697    4.0832 C   0  0  2  0  0  0  0  0  0  0  0  0
    3.4930   -7.2130    4.7652 C   0  0  0  0  0  0  0  0  0  0  0  0
    4.3066   -8.3128    4.4762 C   0  0  0  0  0  0  0  0  0  0  0  0
    5.5795   -8.4259    5.0890 C   0  0  0  0  0  0  0  0  0  0  0  0
    5.8022   -7.6112    6.2187 C   0  0  0  0  0  0  0  0  0  0  0  0
    4.7668   -6.8081    6.7924 C   0  0  0  0  0  0  0  0  0  0  0  0
    4.9121   -6.2068    7.9898 O   0  0  0  0  0  0  0  0  0  0  0  0
    3.5781   -6.7069    6.0409 C   0  0  0  0  0  0  0  0  0  0  0  0
    2.3384   -6.2818    6.4192 O   0  0  0  0  0  0  0  0  0  0  0  0
    1.4210   -6.6654    5.3478 C   0  0  2  0  0  0  0  0  0  0  0  0
    6.2016   -5.1399   -0.4993 H   0  0  0  0  0  0  0  0  0  0  0  0
    6.1848   -3.4938    0.3592 H   0  0  0  0  0  0  0  0  0  0  0  0
    5.3414   -4.4585    2.3405 H   0  0  0  0  0  0  0  0  0  0  0  0
    5.8241   -7.1637    0.9946 H   0  0  0  0  0  0  0  0  0  0  0  0
    5.5657   -6.8813    2.6902 H   0  0  0  0  0  0  0  0  0  0  0  0
    2.4582   -8.6264    1.1965 H   0  0  0  0  0  0  0  0  0  0  0  0
    3.9156   -8.6715    0.3381 H   0  0  0  0  0  0  0  0  0  0  0  0
    4.0069  -10.4199    1.8044 H   0  0  0  0  0  0  0  0  0  0  0  0
    5.2910   -9.3602    2.2422 H   0  0  0  0  0  0  0  0  0  0  0  0
    1.8448   -8.8942    3.2210 H   0  0  0  0  0  0  0  0  0  0  0  0
    1.8088  -10.5537    3.4132 H   0  0  0  0  0  0  0  0  0  0  0  0
    0.8362  -10.2378    5.3493 H   0  0  0  0  0  0  0  0  0  0  0  0
    3.2524   -9.0943    6.7016 H   0  0  0  0  0  0  0  0  0  0  0  0
    2.1685  -10.2502    7.2680 H   0  0  0  0  0  0  0  0  0  0  0  0
    4.0915  -11.2550    6.5860 H   0  0  0  0  0  0  0  0  0  0  0  0
    5.1716  -10.9161    4.8067 H   0  0  0  0  0  0  0  0  0  0  0  0
    3.9566  -13.0762    4.4863 H   0  0  0  0  0  0  0  0  0  0  0  0
    2.9874  -12.3297    3.2557 H   0  0  0  0  0  0  0  0  0  0  0  0
    4.6862  -12.3531    1.9758 H   0  0  0  0  0  0  0  0  0  0  0  0
   -0.6786   -8.8450    8.4594 H   0  0  0  0  0  0  0  0  0  0  0  0
    0.1341  -10.0362    7.5198 H   0  0  0  0  0  0  0  0  0  0  0  0
   -1.3697   -9.4449    6.9268 H   0  0  0  0  0  0  0  0  0  0  0  0
   -1.4708   -7.9932    5.1282 H   0  0  0  0  0  0  0  0  0  0  0  0
   -0.5025  -10.1861    3.7342 H   0  0  0  0  0  0  0  0  0  0  0  0
   -1.9224   -9.2965    3.3432 H   0  0  0  0  0  0  0  0  0  0  0  0
    0.5063   -9.2979    1.7302 H   0  0  0  0  0  0  0  0  0  0  0  0
   -1.0908   -8.7225    1.4140 H   0  0  0  0  0  0  0  0  0  0  0  0
   -0.3692   -6.6323    1.5598 H   0  0  0  0  0  0  0  0  0  0  0  0
    0.9338   -5.6903    2.8236 H   0  0  0  0  0  0  0  0  0  0  0  0
    2.4444   -5.2889    1.2680 H   0  0  0  0  0  0  0  0  0  0  0  0
    3.9918   -5.2222    3.7237 H   0  0  0  0  0  0  0  0  0  0  0  0
    2.4189   -4.4838    3.5588 H   0  0  0  0  0  0  0  0  0  0  0  0
    6.3115   -9.1699    4.8056 H   0  0  0  0  0  0  0  0  0  0  0  0
    6.7379   -7.6754    6.7542 H   0  0  0  0  0  0  0  0  0  0  0  0
    0.6690   -5.8728    5.3204 H   0  0  0  0  0  0  0  0  0  0  0  0
    2.7861  -11.8191    5.8358 H   0  0  0  0  0  0  0  0  0  0  0  0
    3.7112   -6.7028    0.5168 H   0  0  0  0  0  0  0  0  0  0  0  0
  1  2  2  0
  1 36  1  0
  1 37  1  0
  2  3  1  0
  2 38  1  0
  3  4  1  0
  3 39  1  0
  3 40  1  0
  4 24  1  0
  4  5  1  0
  4 72  1  6
  5  6  1  0
  5 41  1  0
  5 42  1  0
  7  6  1  6
  6 43  1  0
  6 44  1  0
  7 12  1  0
  7 28  1  0
  7  8  1  0
  8  9  1  0
  8 45  1  0
  8 46  1  0
  9 10  1  0
  9 15  1  0
  9 47  1  6
 10 11  1  0
 10 48  1  0
 10 49  1  0
 11 12  1  0
 11 50  1  0
 11 71  1  0
 12 13  1  0
 12 51  1  1
 13 14  1  0
 13 52  1  0
 13 53  1  0
 14 54  1  0
 15 35  1  0
 15 16  1  1
 15 18  1  0
 16 17  1  0
 17 55  1  0
 17 56  1  0
 17 57  1  0
 18 22  1  0
 18 19  1  0
 18 58  1  1
 19 20  1  0
 19 59  1  0
 19 60  1  0
 20 21  1  0
 20 61  1  0
 20 62  1  0
 21 22  1  0
 21 23  1  0
 21 63  1  6
 23 26  1  0
 23 24  1  0
 23 64  1  1
 24 25  1  0
 24 65  1  6
 26 25  1  1
 25 66  1  0
 25 67  1  0
 26 35  1  0
 26 27  1  0
 27 33  2  0
 27 28  1  0
 28 29  2  0
 29 30  1  0
 29 68  1  0
 30 31  2  0
 30 69  1  0
 31 32  1  0
 31 33  1  0
 33 34  1  0
 34 35  1  0
 35 70  1  6
M  CHG  3   4   1  11   1  32  -1
M  END
>  <i_m_ct_stereo_status>  (136) 
1

>  <s_m_source_file>  (136) 
/var/tmp/pbs.5076255.sched01/tmpgskxq70o/44i51uky9l.sdf

>  <i_m_source_file_index>  (136) 
28

>  <i_lp_mmshare_version>  (136) 
48012

>  <i_f3d_flags>  (136) 
0

>  <s_epik_input>  (136) 
W0NIMl09W0NIXVtDSDJdTihbQ0gyXVtDSDJdMSlbQ0BIXShbQ0gyXTIpW0NASF0oW0NAQF0yM2M0YzVbQ0BdMTY3KVtDQEhdOFtDSDJdW0NIMl1bQ0hdKE84KVtDQEBdKE9bQ0gzXSkoW0NAQEhdKFtDSDJdNilbQ0gyXVtOSF1bQ0BIXTdbQ0gyXVtPSF0pW0NASF0zT2M0YyhbT0hdKVtjSF1bY0hdNQ==

>  <s_epik_cmdline>  (136) 
J2VwaWtfcHl0aG9uJywgJy1waHQnLCAnMi4wJywgJy1waCcsICc3LjAnLCAnLXRuJywgJzgnLCAnLW1hJywgJzIwMCcsICctaW1hZScsICc8aW5maWxlLm1hZT4nLCAnLW9tYWUnLCAnPG91dGZpbGUubWFlPic=

>  <r_epik_Ionization_Penalty>  (136) 
2.34857

>  <r_epik_Ionization_Penalty_Charging>  (136) 
2.34857

>  <r_epik_Ionization_Penalty_Neutral>  (136) 
1.61083e-06

>  <r_epik_State_Penalty>  (136) 
2.46842

>  <r_epik_Charging_Adjusted_Penalty>  (136) 
4.81699

>  <i_epik_Tot_Q>  (136) 
1

>  <i_epik_Tot_abs_Q>  (136) 
3

>  <s_lp_Force_Field>  (136) 
OPLS3e

>  <r_lp_Energy>  (136) 
220.491

>  <b_lp_Chiralities_Consistent>  (136) 
1

>  <s_lp_Variant>  (136) 
42:0-6

>  <s_i_glide_gridfile>  (136) 
pfpi4k_grid

>  <i_i_glide_lignum>  (136) 
28

>  <i_i_glide_rotatable_bonds>  (136) 
5

>  <r_i_docking_score>  (136) 
-3.00456

>  <r_i_glide_ligand_efficiency>  (136) 
-0.0858447

>  <r_i_glide_ligand_efficiency_sa>  (136) 
-0.280804

>  <r_i_glide_ligand_efficiency_ln>  (136) 
-0.659568

>  <r_i_glide_gscore>  (136) 
-3.00456

>  <r_i_glide_lipo>  (136) 
-0.214983

>  <r_i_glide_hbond>  (136) 
-0.233287

>  <r_i_glide_metal>  (136) 
-0

>  <r_i_glide_rewards>  (136) 
-0.125429

>  <r_i_glide_evdw>  (136) 
-19.8995

>  <r_i_glide_ecoul>  (136) 
-10.8115

>  <r_i_glide_erotb>  (136) 
0.262404

>  <r_i_glide_esite>  (136) 
-0.0765711

>  <r_i_glide_emodel>  (136) 
-38.0749

>  <r_i_glide_energy>  (136) 
-30.711

>  <r_i_glide_einternal>  (136) 
3.13041

>  <r_i_glide_intrahb_reward>  (136) 
-0

>  <i_i_glide_confnum>  (136) 
2

>  <i_i_glide_posenum>  (136) 
16

>  <r_i_glide_eff_state_penalty>  (136) 
0

>  <ligand_id>  (136) 
42

>  <original_smiles>  (136) 
C=CCN1CCC23CC(CNC2CO)C2(OC)C4CCC(O4)C4C1CC41c4c3ccc(O)c4OC12

>  <smiles>  (136) 
[H]OC([H])([H])C1([H])C23c4c([H])c([H])c([O-])c5c4C46C([H])([H])C([H])(C4([H])C4([H])OC([H])(C([H])([H])C4([H])[H])C(OC([H])([H])[H])(C6([H])O5)C([H])(C2([H])[H])C([H])([H])[N+]1([H])[H])[N+]([H])(C([H])([H])C([H])=C([H])[H])C([H])([H])C3([H])[H]

$$$$
42:6:0
     RDKit          3D

 72 79  0  0  1  0  0  0  0  0999 V2000
   -1.0296   -9.7703    2.8684 C   0  0  0  0  0  0  0  0  0  0  0  0
    0.0026  -10.6101    2.6988 C   0  0  0  0  0  0  0  0  0  0  0  0
    0.8257  -11.2087    3.8260 C   0  0  0  0  0  0  0  0  0  0  0  0
    2.0933  -10.4718    4.0725 N   0  0  2  0  0  0  0  0  0  0  0  0
    3.0656  -10.5156    2.9479 C   0  0  0  0  0  0  0  0  0  0  0  0
    3.1092   -9.1968    2.0975 C   0  0  0  0  0  0  0  0  0  0  0  0
    3.4788   -7.8506    2.8228 C   0  0  1  0  0  0  0  0  0  0  0  0
    4.8370   -7.9930    3.5314 C   0  0  0  0  0  0  0  0  0  0  0  0
    5.2598   -6.8597    4.5163 C   0  0  1  0  0  0  0  0  0  0  0  0
    4.5890   -5.5263    4.0691 C   0  0  0  0  0  0  0  0  0  0  0  0
    4.4380   -5.4565    2.5865 N   0  0  0  0  0  0  0  0  0  0  0  0
    3.7789   -6.6032    1.8722 C   0  0  1  0  0  0  0  0  0  0  0  0
    4.6050   -6.8846    0.5816 C   0  0  0  0  0  0  0  0  0  0  0  0
    4.6031   -5.7474   -0.2622 O   0  0  0  0  0  0  0  0  0  0  0  0
    5.3470   -7.2687    6.0824 C   0  0  2  0  0  0  0  0  0  0  0  0
    5.7179   -6.1085    6.8466 O   0  0  0  0  0  0  0  0  0  0  0  0
    6.9256   -5.3974    6.5683 C   0  0  0  0  0  0  0  0  0  0  0  0
    6.4652   -8.3963    6.3303 C   0  0  2  0  0  0  0  0  0  0  0  0
    7.2558   -9.0166    5.1550 C   0  0  0  0  0  0  0  0  0  0  0  0
    6.5266  -10.3189    4.8035 C   0  0  0  0  0  0  0  0  0  0  0  0
    5.4939  -10.5141    5.9276 C   0  0  1  0  0  0  0  0  0  0  0  0
    5.9985   -9.6113    6.9206 O   0  0  0  0  0  0  0  0  0  0  0  0
    3.9818  -10.1342    5.8861 C   0  0  2  0  0  0  0  0  0  0  0  0
    2.6396  -10.7594    5.4410 C   0  0  1  0  0  0  0  0  0  0  0  0
    2.0796   -9.6800    6.4397 C   0  0  0  0  0  0  0  0  0  0  0  0
    3.2834   -8.7433    6.0036 C   0  0  2  0  0  0  0  0  0  0  0  0
    2.4881   -7.7238    5.2155 C   0  0  0  0  0  0  0  0  0  0  0  0
    2.3422   -7.5260    3.8269 C   0  0  0  0  0  0  0  0  0  0  0  0
    1.2643   -6.7224    3.3703 C   0  0  0  0  0  0  0  0  0  0  0  0
    0.6483   -5.8867    4.3400 C   0  0  0  0  0  0  0  0  0  0  0  0
    1.1470   -5.7785    5.6542 C   0  0  0  0  0  0  0  0  0  0  0  0
    0.6772   -4.8167    6.4998 O   0  0  0  0  0  0  0  0  0  0  0  0
    2.1452   -6.6854    6.0361 C   0  0  0  0  0  0  0  0  0  0  0  0
    3.0067   -6.6657    7.0987 O   0  0  0  0  0  0  0  0  0  0  0  0
    4.0053   -7.7020    6.8533 C   0  0  2  0  0  0  0  0  0  0  0  0
   -1.3371   -9.4408    3.8532 H   0  0  0  0  0  0  0  0  0  0  0  0
   -1.5852   -9.4070    2.0156 H   0  0  0  0  0  0  0  0  0  0  0  0
    0.2480  -10.8982    1.6870 H   0  0  0  0  0  0  0  0  0  0  0  0
    0.2153  -11.1996    4.7329 H   0  0  0  0  0  0  0  0  0  0  0  0
    1.0288  -12.2558    3.6044 H   0  0  0  0  0  0  0  0  0  0  0  0
    4.0553  -10.7788    3.3058 H   0  0  0  0  0  0  0  0  0  0  0  0
    2.8158  -11.3482    2.2944 H   0  0  0  0  0  0  0  0  0  0  0  0
    3.8292   -9.4037    1.3036 H   0  0  0  0  0  0  0  0  0  0  0  0
    2.1556   -9.0701    1.5817 H   0  0  0  0  0  0  0  0  0  0  0  0
    4.7679   -8.8930    4.0658 H   0  0  0  0  0  0  0  0  0  0  0  0
    5.6354   -8.1772    2.8082 H   0  0  0  0  0  0  0  0  0  0  0  0
    6.2917   -6.6533    4.2411 H   0  0  0  0  0  0  0  0  0  0  0  0
    3.6280   -5.3388    4.5315 H   0  0  0  0  0  0  0  0  0  0  0  0
    5.1955   -4.6715    4.3681 H   0  0  0  0  0  0  0  0  0  0  0  0
    3.9554   -4.6075    2.3434 H   0  0  0  0  0  0  0  0  0  0  0  0
    2.8494   -6.2142    1.4755 H   0  0  0  0  0  0  0  0  0  0  0  0
    5.6420   -7.1244    0.8155 H   0  0  0  0  0  0  0  0  0  0  0  0
    4.2131   -7.7172   -0.0024 H   0  0  0  0  0  0  0  0  0  0  0  0
    3.9491   -5.8574   -0.9523 H   0  0  0  0  0  0  0  0  0  0  0  0
    6.9857   -4.5536    7.2566 H   0  0  0  0  0  0  0  0  0  0  0  0
    6.9596   -4.9755    5.5675 H   0  0  0  0  0  0  0  0  0  0  0  0
    7.8246   -5.9935    6.7131 H   0  0  0  0  0  0  0  0  0  0  0  0
    7.1827   -8.0133    7.0527 H   0  0  0  0  0  0  0  0  0  0  0  0
    7.4573   -8.3768    4.2996 H   0  0  0  0  0  0  0  0  0  0  0  0
    8.2451   -9.2903    5.5245 H   0  0  0  0  0  0  0  0  0  0  0  0
    6.1459  -10.3766    3.7895 H   0  0  0  0  0  0  0  0  0  0  0  0
    7.2557  -11.1265    4.8618 H   0  0  0  0  0  0  0  0  0  0  0  0
    5.6060  -11.5392    6.2991 H   0  0  0  0  0  0  0  0  0  0  0  0
    3.9857  -10.5005    6.9274 H   0  0  0  0  0  0  0  0  0  0  0  0
    2.5158  -11.7942    5.7564 H   0  0  0  0  0  0  0  0  0  0  0  0
    1.0630   -9.3321    6.2380 H   0  0  0  0  0  0  0  0  0  0  0  0
    2.1038   -9.9885    7.4913 H   0  0  0  0  0  0  0  0  0  0  0  0
    1.0073   -6.6375    2.3311 H   0  0  0  0  0  0  0  0  0  0  0  0
   -0.1435   -5.2222    4.0401 H   0  0  0  0  0  0  0  0  0  0  0  0
    4.2711   -8.1005    7.8331 H   0  0  0  0  0  0  0  0  0  0  0  0
    5.3638   -5.3848    2.1919 H   0  0  0  0  0  0  0  0  0  0  0  0
    1.8208   -9.4971    4.1317 H   0  0  0  0  0  0  0  0  0  0  0  0
  1  2  2  0
  1 36  1  0
  1 37  1  0
  2  3  1  0
  2 38  1  0
  3  4  1  0
  3 39  1  0
  3 40  1  0
  4 24  1  0
  4  5  1  0
  4 72  1  1
  5  6  1  0
  5 41  1  0
  5 42  1  0
  7  6  1  6
  6 43  1  0
  6 44  1  0
  7 12  1  0
  7 28  1  0
  7  8  1  0
  8  9  1  0
  8 45  1  0
  8 46  1  0
  9 10  1  0
  9 15  1  0
  9 47  1  6
 10 11  1  0
 10 48  1  0
 10 49  1  0
 11 12  1  0
 11 50  1  0
 11 71  1  0
 12 13  1  0
 12 51  1  6
 13 14  1  0
 13 52  1  0
 13 53  1  0
 14 54  1  0
 15 35  1  0
 15 16  1  1
 15 18  1  0
 16 17  1  0
 17 55  1  0
 17 56  1  0
 17 57  1  0
 18 22  1  0
 18 19  1  0
 18 58  1  1
 19 20  1  0
 19 59  1  0
 19 60  1  0
 20 21  1  0
 20 61  1  0
 20 62  1  0
 21 22  1  0
 21 23  1  0
 21 63  1  1
 23 26  1  0
 23 24  1  0
 23 64  1  1
 24 25  1  0
 24 65  1  1
 26 25  1  1
 25 66  1  0
 25 67  1  0
 26 35  1  0
 26 27  1  0
 27 33  2  0
 27 28  1  0
 28 29  2  0
 29 30  1  0
 29 68  1  0
 30 31  2  0
 30 69  1  0
 31 32  1  0
 31 33  1  0
 33 34  1  0
 34 35  1  0
 35 70  1  1
M  CHG  3   4   1  11   1  32  -1
M  END
>  <i_m_ct_stereo_status>  (137) 
1

>  <s_m_source_file>  (137) 
/var/tmp/pbs.5076255.sched01/tmpgskxq70o/44i51uky9l.sdf

>  <i_m_source_file_index>  (137) 
29

>  <i_lp_mmshare_version>  (137) 
48012

>  <i_f3d_flags>  (137) 
0

>  <s_epik_input>  (137) 
W0NIMl09W0NIXVtDSDJdTihbQ0gyXVtDSDJdMSlbQ0BIXShbQ0gyXTIpW0NASF0oW0NAQF0yM2M0YzVbQ0BdMTY3KVtDQEhdOFtDSDJdW0NIMl1bQ0hdKE84KVtDQEBdKE9bQ0gzXSkoW0NAQEhdKFtDSDJdNilbQ0gyXVtOSF1bQ0BIXTdbQ0gyXVtPSF0pW0NASF0zT2M0YyhbT0hdKVtjSF1bY0hdNQ==

>  <s_epik_cmdline>  (137) 
J2VwaWtfcHl0aG9uJywgJy1waHQnLCAnMi4wJywgJy1waCcsICc3LjAnLCAnLXRuJywgJzgnLCAnLW1hJywgJzIwMCcsICctaW1hZScsICc8aW5maWxlLm1hZT4nLCAnLW9tYWUnLCAnPG91dGZpbGUubWFlPic=

>  <r_epik_Ionization_Penalty>  (137) 
2.34857

>  <r_epik_Ionization_Penalty_Charging>  (137) 
2.34857

>  <r_epik_Ionization_Penalty_Neutral>  (137) 
1.61083e-06

>  <r_epik_State_Penalty>  (137) 
2.46842

>  <r_epik_Charging_Adjusted_Penalty>  (137) 
4.81699

>  <i_epik_Tot_Q>  (137) 
1

>  <i_epik_Tot_abs_Q>  (137) 
3

>  <s_lp_Force_Field>  (137) 
OPLS3e

>  <r_lp_Energy>  (137) 
213.939

>  <b_lp_Chiralities_Consistent>  (137) 
1

>  <s_lp_Variant>  (137) 
42:0-7

>  <s_i_glide_gridfile>  (137) 
pfpi4k_grid

>  <i_i_glide_lignum>  (137) 
29

>  <i_i_glide_rotatable_bonds>  (137) 
5

>  <r_i_docking_score>  (137) 
-2.61063

>  <r_i_glide_ligand_efficiency>  (137) 
-0.0745893

>  <r_i_glide_ligand_efficiency_sa>  (137) 
-0.243987

>  <r_i_glide_ligand_efficiency_ln>  (137) 
-0.57309

>  <r_i_glide_gscore>  (137) 
-2.61063

>  <r_i_glide_lipo>  (137) 
-0.332607

>  <r_i_glide_hbond>  (137) 
-0.32

>  <r_i_glide_metal>  (137) 
-0

>  <r_i_glide_rewards>  (137) 
-0.125429

>  <r_i_glide_evdw>  (137) 
-18.3957

>  <r_i_glide_ecoul>  (137) 
-7.76505

>  <r_i_glide_erotb>  (137) 
0.262404

>  <r_i_glide_esite>  (137) 
-0.0104501

>  <r_i_glide_emodel>  (137) 
-31.3013

>  <r_i_glide_energy>  (137) 
-26.1608

>  <r_i_glide_einternal>  (137) 
2.23056

>  <r_i_glide_intrahb_reward>  (137) 
-0

>  <i_i_glide_confnum>  (137) 
5

>  <i_i_glide_posenum>  (137) 
19

>  <r_i_glide_eff_state_penalty>  (137) 
0

>  <ligand_id>  (137) 
42

>  <original_smiles>  (137) 
C=CCN1CCC23CC(CNC2CO)C2(OC)C4CCC(O4)C4C1CC41c4c3ccc(O)c4OC12

>  <smiles>  (137) 
[H]OC([H])([H])C1([H])C23c4c([H])c([H])c([O-])c5c4C46C([H])([H])C([H])(C4([H])C4([H])OC([H])(C([H])([H])C4([H])[H])C(OC([H])([H])[H])(C6([H])O5)C([H])(C2([H])[H])C([H])([H])[N+]1([H])[H])[N+]([H])(C([H])([H])C([H])=C([H])[H])C([H])([H])C3([H])[H]

$$$$
42:6:1
     RDKit          3D

 72 79  0  0  1  0  0  0  0  0999 V2000
   -1.2917   -4.4669    6.9433 C   0  0  0  0  0  0  0  0  0  0  0  0
    0.0481   -4.5628    6.8552 C   0  0  0  0  0  0  0  0  0  0  0  0
    0.8086   -5.8597    6.6410 C   0  0  0  0  0  0  0  0  0  0  0  0
    1.7226   -5.8311    5.4755 N   0  0  2  0  0  0  0  0  0  0  0  0
    1.0776   -5.4089    4.2078 C   0  0  0  0  0  0  0  0  0  0  0  0
    1.4078   -3.9331    3.8013 C   0  0  0  0  0  0  0  0  0  0  0  0
    2.9162   -3.5411    3.5555 C   0  0  1  0  0  0  0  0  0  0  0  0
    3.5461   -4.4755    2.5144 C   0  0  0  0  0  0  0  0  0  0  0  0
    5.0948   -4.4189    2.3349 C   0  0  1  0  0  0  0  0  0  0  0  0
    5.5778   -2.9815    2.6909 C   0  0  0  0  0  0  0  0  0  0  0  0
    4.5724   -1.9221    2.3743 N   0  0  0  0  0  0  0  0  0  0  0  0
    3.1701   -2.1273    2.8638 C   0  0  1  0  0  0  0  0  0  0  0  0
    2.2282   -1.6804    1.7088 C   0  0  0  0  0  0  0  0  0  0  0  0
    2.6147   -2.2403    0.4779 O   0  0  0  0  0  0  0  0  0  0  0  0
    5.9179   -5.7548    2.7860 C   0  0  2  0  0  0  0  0  0  0  0  0
    7.2902   -5.4818    2.4368 O   0  0  0  0  0  0  0  0  0  0  0  0
    8.3102   -6.4397    2.7980 C   0  0  0  0  0  0  0  0  0  0  0  0
    5.4692   -6.9915    1.8625 C   0  0  2  0  0  0  0  0  0  0  0  0
    4.3521   -6.8806    0.8031 C   0  0  0  0  0  0  0  0  0  0  0  0
    3.0884   -7.3981    1.4894 C   0  0  0  0  0  0  0  0  0  0  0  0
    3.5647   -7.9872    2.8251 C   0  0  1  0  0  0  0  0  0  0  0  0
    4.9762   -8.1156    2.5898 O   0  0  0  0  0  0  0  0  0  0  0  0
    3.5159   -7.2660    4.2140 C   0  0  2  0  0  0  0  0  0  0  0  0
    2.5577   -7.0709    5.4051 C   0  0  1  0  0  0  0  0  0  0  0  0
    3.9011   -6.7736    6.1515 C   0  0  0  0  0  0  0  0  0  0  0  0
    4.4504   -6.1562    4.7996 C   0  0  2  0  0  0  0  0  0  0  0  0
    4.4804   -4.7176    5.2470 C   0  0  0  0  0  0  0  0  0  0  0  0
    3.6395   -3.6379    4.9330 C   0  0  0  0  0  0  0  0  0  0  0  0
    3.6735   -2.4645    5.7201 C   0  0  0  0  0  0  0  0  0  0  0  0
    4.8266   -2.3185    6.5412 C   0  0  0  0  0  0  0  0  0  0  0  0
    5.9323   -3.2170    6.4851 C   0  0  0  0  0  0  0  0  0  0  0  0
    7.1111   -2.9557    7.1033 O   0  0  0  0  0  0  0  0  0  0  0  0
    5.7329   -4.3960    5.7316 C   0  0  0  0  0  0  0  0  0  0  0  0
    6.6178   -5.3277    5.2703 O   0  0  0  0  0  0  0  0  0  0  0  0
    5.8844   -6.1797    4.3365 C   0  0  2  0  0  0  0  0  0  0  0  0
   -1.9418   -5.3311    6.8584 H   0  0  0  0  0  0  0  0  0  0  0  0
   -1.7717   -3.5084    7.0994 H   0  0  0  0  0  0  0  0  0  0  0  0
    0.6336   -3.6564    6.9626 H   0  0  0  0  0  0  0  0  0  0  0  0
    1.3883   -6.0359    7.5427 H   0  0  0  0  0  0  0  0  0  0  0  0
    0.1039   -6.6819    6.5607 H   0  0  0  0  0  0  0  0  0  0  0  0
    1.3091   -6.0867    3.4007 H   0  0  0  0  0  0  0  0  0  0  0  0
    0.0037   -5.5065    4.2962 H   0  0  0  0  0  0  0  0  0  0  0  0
    0.8221   -3.7612    2.8944 H   0  0  0  0  0  0  0  0  0  0  0  0
    0.9760   -3.2402    4.5262 H   0  0  0  0  0  0  0  0  0  0  0  0
    3.2744   -5.4307    2.8246 H   0  0  0  0  0  0  0  0  0  0  0  0
    3.0455   -4.3954    1.5486 H   0  0  0  0  0  0  0  0  0  0  0  0
    5.2548   -4.3826    1.2578 H   0  0  0  0  0  0  0  0  0  0  0  0
    5.8155   -2.8691    3.7306 H   0  0  0  0  0  0  0  0  0  0  0  0
    6.4858   -2.7594    2.1321 H   0  0  0  0  0  0  0  0  0  0  0  0
    4.9064   -1.0407    2.6951 H   0  0  0  0  0  0  0  0  0  0  0  0
    2.9772   -1.3432    3.5748 H   0  0  0  0  0  0  0  0  0  0  0  0
    1.1723   -1.8888    1.8983 H   0  0  0  0  0  0  0  0  0  0  0  0
    2.2547   -0.5960    1.5805 H   0  0  0  0  0  0  0  0  0  0  0  0
    2.0289   -1.8344   -0.1916 H   0  0  0  0  0  0  0  0  0  0  0  0
    9.2983   -6.0493    2.5547 H   0  0  0  0  0  0  0  0  0  0  0  0
    8.2186   -7.3893    2.2675 H   0  0  0  0  0  0  0  0  0  0  0  0
    8.3702   -6.6825    3.8617 H   0  0  0  0  0  0  0  0  0  0  0  0
    6.3265   -7.3330    1.2886 H   0  0  0  0  0  0  0  0  0  0  0  0
    4.2389   -5.9252    0.2915 H   0  0  0  0  0  0  0  0  0  0  0  0
    4.5939   -7.5869    0.0049 H   0  0  0  0  0  0  0  0  0  0  0  0
    2.2744   -6.6790    1.5356 H   0  0  0  0  0  0  0  0  0  0  0  0
    2.7005   -8.2136    0.8826 H   0  0  0  0  0  0  0  0  0  0  0  0
    3.1326   -8.9891    2.9198 H   0  0  0  0  0  0  0  0  0  0  0  0
    4.0151   -8.1792    4.5728 H   0  0  0  0  0  0  0  0  0  0  0  0
    2.0849   -7.9959    5.7344 H   0  0  0  0  0  0  0  0  0  0  0  0
    3.8446   -6.1193    7.0318 H   0  0  0  0  0  0  0  0  0  0  0  0
    4.4438   -7.6729    6.4760 H   0  0  0  0  0  0  0  0  0  0  0  0
    2.9665   -1.6453    5.6408 H   0  0  0  0  0  0  0  0  0  0  0  0
    4.9492   -1.4331    7.1485 H   0  0  0  0  0  0  0  0  0  0  0  0
    6.2697   -7.1863    4.4591 H   0  0  0  0  0  0  0  0  0  0  0  0
    4.4584   -1.9032    1.3843 H   0  0  0  0  0  0  0  0  0  0  0  0
    2.3865   -5.0984    5.6586 H   0  0  0  0  0  0  0  0  0  0  0  0
  1  2  2  0
  1 36  1  0
  1 37  1  0
  2  3  1  0
  2 38  1  0
  3  4  1  0
  3 39  1  0
  3 40  1  0
  4 24  1  0
  4  5  1  0
  4 72  1  1
  5  6  1  0
  5 41  1  0
  5 42  1  0
  7  6  1  1
  6 43  1  0
  6 44  1  0
  7 12  1  0
  7 28  1  0
  7  8  1  0
  8  9  1  0
  8 45  1  0
  8 46  1  0
  9 10  1  0
  9 15  1  0
  9 47  1  6
 10 11  1  0
 10 48  1  0
 10 49  1  0
 11 12  1  0
 11 50  1  0
 11 71  1  0
 12 13  1  0
 12 51  1  1
 13 14  1  0
 13 52  1  0
 13 53  1  0
 14 54  1  0
 15 35  1  0
 15 16  1  6
 15 18  1  0
 16 17  1  0
 17 55  1  0
 17 56  1  0
 17 57  1  0
 18 22  1  0
 18 19  1  0
 18 58  1  6
 19 20  1  0
 19 59  1  0
 19 60  1  0
 20 21  1  0
 20 61  1  0
 20 62  1  0
 21 22  1  0
 21 23  1  0
 21 63  1  1
 23 26  1  0
 23 24  1  0
 23 64  1  1
 24 25  1  0
 24 65  1  1
 26 25  1  1
 25 66  1  0
 25 67  1  0
 26 35  1  0
 26 27  1  0
 27 33  2  0
 27 28  1  0
 28 29  2  0
 29 30  1  0
 29 68  1  0
 30 31  2  0
 30 69  1  0
 31 32  1  0
 31 33  1  0
 33 34  1  0
 34 35  1  0
 35 70  1  6
M  CHG  3   4   1  11   1  32  -1
M  END
>  <i_m_ct_stereo_status>  (138) 
1

>  <s_m_source_file>  (138) 
/var/tmp/pbs.5076255.sched01/tmpgskxq70o/44i51uky9l.sdf

>  <i_m_source_file_index>  (138) 
29

>  <i_lp_mmshare_version>  (138) 
48012

>  <i_f3d_flags>  (138) 
0

>  <s_epik_input>  (138) 
W0NIMl09W0NIXVtDSDJdTihbQ0gyXVtDSDJdMSlbQ0BIXShbQ0gyXTIpW0NASF0oW0NAQF0yM2M0YzVbQ0BdMTY3KVtDQEhdOFtDSDJdW0NIMl1bQ0hdKE84KVtDQEBdKE9bQ0gzXSkoW0NAQEhdKFtDSDJdNilbQ0gyXVtOSF1bQ0BIXTdbQ0gyXVtPSF0pW0NASF0zT2M0YyhbT0hdKVtjSF1bY0hdNQ==

>  <s_epik_cmdline>  (138) 
J2VwaWtfcHl0aG9uJywgJy1waHQnLCAnMi4wJywgJy1waCcsICc3LjAnLCAnLXRuJywgJzgnLCAnLW1hJywgJzIwMCcsICctaW1hZScsICc8aW5maWxlLm1hZT4nLCAnLW9tYWUnLCAnPG91dGZpbGUubWFlPic=

>  <r_epik_Ionization_Penalty>  (138) 
2.34857

>  <r_epik_Ionization_Penalty_Charging>  (138) 
2.34857

>  <r_epik_Ionization_Penalty_Neutral>  (138) 
1.61083e-06

>  <r_epik_State_Penalty>  (138) 
2.46842

>  <r_epik_Charging_Adjusted_Penalty>  (138) 
4.81699

>  <i_epik_Tot_Q>  (138) 
1

>  <i_epik_Tot_abs_Q>  (138) 
3

>  <s_lp_Force_Field>  (138) 
OPLS3e

>  <r_lp_Energy>  (138) 
213.939

>  <b_lp_Chiralities_Consistent>  (138) 
1

>  <s_lp_Variant>  (138) 
42:0-7

>  <s_i_glide_gridfile>  (138) 
pfpi4k_grid

>  <i_i_glide_lignum>  (138) 
29

>  <i_i_glide_rotatable_bonds>  (138) 
5

>  <r_i_docking_score>  (138) 
-2.35418

>  <r_i_glide_ligand_efficiency>  (138) 
-0.0672622

>  <r_i_glide_ligand_efficiency_sa>  (138) 
-0.220019

>  <r_i_glide_ligand_efficiency_ln>  (138) 
-0.516794

>  <r_i_glide_gscore>  (138) 
-2.35418

>  <r_i_glide_lipo>  (138) 
-0.34624

>  <r_i_glide_hbond>  (138) 
-0.16

>  <r_i_glide_metal>  (138) 
-0

>  <r_i_glide_rewards>  (138) 
-0.125429

>  <r_i_glide_evdw>  (138) 
-15.715

>  <r_i_glide_ecoul>  (138) 
-7.99361

>  <r_i_glide_erotb>  (138) 
0.262404

>  <r_i_glide_esite>  (138) 
-0.000117635

>  <r_i_glide_emodel>  (138) 
-25.2388

>  <r_i_glide_energy>  (138) 
-23.7087

>  <r_i_glide_einternal>  (138) 
7.02423

>  <r_i_glide_intrahb_reward>  (138) 
-0

>  <i_i_glide_confnum>  (138) 
5

>  <i_i_glide_posenum>  (138) 
1

>  <r_i_glide_eff_state_penalty>  (138) 
0

>  <ligand_id>  (138) 
42

>  <original_smiles>  (138) 
C=CCN1CCC23CC(CNC2CO)C2(OC)C4CCC(O4)C4C1CC41c4c3ccc(O)c4OC12

>  <smiles>  (138) 
[H]OC([H])([H])C1([H])C23c4c([H])c([H])c([O-])c5c4C46C([H])([H])C([H])(C4([H])C4([H])OC([H])(C([H])([H])C4([H])[H])C(OC([H])([H])[H])(C6([H])O5)C([H])(C2([H])[H])C([H])([H])[N+]1([H])[H])[N+]([H])(C([H])([H])C([H])=C([H])[H])C([H])([H])C3([H])[H]

$$$$
42:6:2
     RDKit          3D

 72 79  0  0  1  0  0  0  0  0999 V2000
    0.0802   -9.0428    8.9427 C   0  0  0  0  0  0  0  0  0  0  0  0
    0.6967   -9.6342    7.9042 C   0  0  0  0  0  0  0  0  0  0  0  0
    0.0900   -9.8160    6.5270 C   0  0  0  0  0  0  0  0  0  0  0  0
    0.6982   -8.8903    5.5364 N   0  0  2  0  0  0  0  0  0  0  0  0
   -0.2353   -7.8445    5.0374 C   0  0  0  0  0  0  0  0  0  0  0  0
   -0.0272   -6.4305    5.6885 C   0  0  0  0  0  0  0  0  0  0  0  0
    1.3673   -5.7209    5.5091 C   0  0  1  0  0  0  0  0  0  0  0  0
    1.7137   -5.6076    4.0139 C   0  0  0  0  0  0  0  0  0  0  0  0
    3.1744   -5.1952    3.6357 C   0  0  1  0  0  0  0  0  0  0  0  0
    3.7364   -4.2958    4.7734 C   0  0  0  0  0  0  0  0  0  0  0  0
    2.6689   -3.4800    5.4378 N   0  0  0  0  0  0  0  0  0  0  0  0
    1.4311   -4.1886    5.9275 C   0  0  1  0  0  0  0  0  0  0  0  0
    0.1920   -3.3109    5.5605 C   0  0  0  0  0  0  0  0  0  0  0  0
   -0.8421   -3.4189    6.5249 O   0  0  0  0  0  0  0  0  0  0  0  0
    4.0811   -6.3331    2.9003 C   0  0  2  0  0  0  0  0  0  0  0  0
    5.3248   -5.6714    2.5928 O   0  0  0  0  0  0  0  0  0  0  0  0
    6.4000   -6.4328    2.0019 C   0  0  0  0  0  0  0  0  0  0  0  0
    3.4170   -6.7148    1.4869 C   0  0  2  0  0  0  0  0  0  0  0  0
    2.0657   -6.1345    1.0162 C   0  0  0  0  0  0  0  0  0  0  0  0
    1.0159   -7.1832    1.3860 C   0  0  0  0  0  0  0  0  0  0  0  0
    1.8224   -8.4062    1.8555 C   0  0  1  0  0  0  0  0  0  0  0  0
    3.1239   -8.1020    1.3310 O   0  0  0  0  0  0  0  0  0  0  0  0
    2.1304   -8.7922    3.3391 C   0  0  2  0  0  0  0  0  0  0  0  0
    1.5071   -9.6032    4.4913 C   0  0  1  0  0  0  0  0  0  0  0  0
    2.9933   -9.6376    4.9808 C   0  0  0  0  0  0  0  0  0  0  0  0
    3.1758   -8.2006    4.3390 C   0  0  2  0  0  0  0  0  0  0  0  0
    3.3133   -7.4171    5.6199 C   0  0  0  0  0  0  0  0  0  0  0  0
    2.4159   -6.5661    6.2829 C   0  0  0  0  0  0  0  0  0  0  0  0
    2.6545   -6.2181    7.6359 C   0  0  0  0  0  0  0  0  0  0  0  0
    3.9731   -6.4440    8.1041 C   0  0  0  0  0  0  0  0  0  0  0  0
    5.0238   -6.8753    7.2443 C   0  0  0  0  0  0  0  0  0  0  0  0
    6.3225   -6.8720    7.6354 O   0  0  0  0  0  0  0  0  0  0  0  0
    4.6403   -7.2877    5.9515 C   0  0  0  0  0  0  0  0  0  0  0  0
    5.3868   -7.5129    4.8301 O   0  0  0  0  0  0  0  0  0  0  0  0
    4.4441   -7.6637    3.7235 C   0  0  2  0  0  0  0  0  0  0  0  0
   -0.9106   -8.6136    8.8444 H   0  0  0  0  0  0  0  0  0  0  0  0
    0.5637   -8.9865    9.9121 H   0  0  0  0  0  0  0  0  0  0  0  0
    1.6873  -10.0465    8.0612 H   0  0  0  0  0  0  0  0  0  0  0  0
    0.2297  -10.8506    6.2345 H   0  0  0  0  0  0  0  0  0  0  0  0
   -0.9852   -9.7104    6.6202 H   0  0  0  0  0  0  0  0  0  0  0  0
   -0.2027   -7.7764    3.9605 H   0  0  0  0  0  0  0  0  0  0  0  0
   -1.2643   -8.1390    5.2069 H   0  0  0  0  0  0  0  0  0  0  0  0
   -0.8158   -5.7999    5.2609 H   0  0  0  0  0  0  0  0  0  0  0  0
   -0.2596   -6.4850    6.7553 H   0  0  0  0  0  0  0  0  0  0  0  0
    1.5258   -6.5607    3.6287 H   0  0  0  0  0  0  0  0  0  0  0  0
    0.9970   -4.9735    3.4844 H   0  0  0  0  0  0  0  0  0  0  0  0
    3.0591   -4.4366    2.8618 H   0  0  0  0  0  0  0  0  0  0  0  0
    4.2777   -4.8375    5.5325 H   0  0  0  0  0  0  0  0  0  0  0  0
    4.4675   -3.6024    4.3555 H   0  0  0  0  0  0  0  0  0  0  0  0
    3.0737   -2.9963    6.2108 H   0  0  0  0  0  0  0  0  0  0  0  0
    1.4718   -4.0818    7.0034 H   0  0  0  0  0  0  0  0  0  0  0  0
    0.4582   -2.2555    5.5705 H   0  0  0  0  0  0  0  0  0  0  0  0
   -0.1891   -3.5010    4.5541 H   0  0  0  0  0  0  0  0  0  0  0  0
   -1.1260   -4.3217    6.5797 H   0  0  0  0  0  0  0  0  0  0  0  0
    7.2904   -5.8103    1.9113 H   0  0  0  0  0  0  0  0  0  0  0  0
    6.1721   -6.7917    0.9976 H   0  0  0  0  0  0  0  0  0  0  0  0
    6.7242   -7.2992    2.5822 H   0  0  0  0  0  0  0  0  0  0  0  0
    4.1032   -6.4443    0.6895 H   0  0  0  0  0  0  0  0  0  0  0  0
    1.8328   -5.1178    1.3227 H   0  0  0  0  0  0  0  0  0  0  0  0
    2.1019   -6.0837   -0.0738 H   0  0  0  0  0  0  0  0  0  0  0  0
    0.2438   -6.8306    2.0597 H   0  0  0  0  0  0  0  0  0  0  0  0
    0.4842   -7.4507    0.4758 H   0  0  0  0  0  0  0  0  0  0  0  0
    1.4359   -9.2810    1.3263 H   0  0  0  0  0  0  0  0  0  0  0  0
    2.6987   -9.6128    2.8770 H   0  0  0  0  0  0  0  0  0  0  0  0
    1.1313  -10.5713    4.1708 H   0  0  0  0  0  0  0  0  0  0  0  0
    3.1458   -9.7389    6.0617 H   0  0  0  0  0  0  0  0  0  0  0  0
    3.5999  -10.4186    4.5034 H   0  0  0  0  0  0  0  0  0  0  0  0
    1.9438   -5.6928    8.2574 H   0  0  0  0  0  0  0  0  0  0  0  0
    4.2388   -6.1685    9.1142 H   0  0  0  0  0  0  0  0  0  0  0  0
    4.8538   -8.4188    3.0565 H   0  0  0  0  0  0  0  0  0  0  0  0
    2.3624   -2.8056    4.7684 H   0  0  0  0  0  0  0  0  0  0  0  0
    1.3942   -8.3688    6.0520 H   0  0  0  0  0  0  0  0  0  0  0  0
  1  2  2  0
  1 36  1  0
  1 37  1  0
  2  3  1  0
  2 38  1  0
  3  4  1  0
  3 39  1  0
  3 40  1  0
  4 24  1  0
  4  5  1  0
  4 72  1  1
  5  6  1  0
  5 41  1  0
  5 42  1  0
  7  6  1  6
  6 43  1  0
  6 44  1  0
  7 12  1  0
  7 28  1  0
  7  8  1  0
  8  9  1  0
  8 45  1  0
  8 46  1  0
  9 10  1  0
  9 15  1  0
  9 47  1  6
 10 11  1  0
 10 48  1  0
 10 49  1  0
 11 12  1  0
 11 50  1  0
 11 71  1  0
 12 13  1  0
 12 51  1  1
 13 14  1  0
 13 52  1  0
 13 53  1  0
 14 54  1  0
 15 35  1  0
 15 16  1  6
 15 18  1  0
 16 17  1  0
 17 55  1  0
 17 56  1  0
 17 57  1  0
 18 22  1  0
 18 19  1  0
 18 58  1  6
 19 20  1  0
 19 59  1  0
 19 60  1  0
 20 21  1  0
 20 61  1  0
 20 62  1  0
 21 22  1  0
 21 23  1  0
 21 63  1  6
 23 26  1  0
 23 24  1  0
 23 64  1  6
 24 25  1  0
 24 65  1  6
 26 25  1  1
 25 66  1  0
 25 67  1  0
 26 35  1  0
 26 27  1  0
 27 33  2  0
 27 28  1  0
 28 29  2  0
 29 30  1  0
 29 68  1  0
 30 31  2  0
 30 69  1  0
 31 32  1  0
 31 33  1  0
 33 34  1  0
 34 35  1  0
 35 70  1  6
M  CHG  3   4   1  11   1  32  -1
M  END
>  <i_m_ct_stereo_status>  (139) 
1

>  <s_m_source_file>  (139) 
/var/tmp/pbs.5076255.sched01/tmpgskxq70o/44i51uky9l.sdf

>  <i_m_source_file_index>  (139) 
29

>  <i_lp_mmshare_version>  (139) 
48012

>  <i_f3d_flags>  (139) 
0

>  <s_epik_input>  (139) 
W0NIMl09W0NIXVtDSDJdTihbQ0gyXVtDSDJdMSlbQ0BIXShbQ0gyXTIpW0NASF0oW0NAQF0yM2M0YzVbQ0BdMTY3KVtDQEhdOFtDSDJdW0NIMl1bQ0hdKE84KVtDQEBdKE9bQ0gzXSkoW0NAQEhdKFtDSDJdNilbQ0gyXVtOSF1bQ0BIXTdbQ0gyXVtPSF0pW0NASF0zT2M0YyhbT0hdKVtjSF1bY0hdNQ==

>  <s_epik_cmdline>  (139) 
J2VwaWtfcHl0aG9uJywgJy1waHQnLCAnMi4wJywgJy1waCcsICc3LjAnLCAnLXRuJywgJzgnLCAnLW1hJywgJzIwMCcsICctaW1hZScsICc8aW5maWxlLm1hZT4nLCAnLW9tYWUnLCAnPG91dGZpbGUubWFlPic=

>  <r_epik_Ionization_Penalty>  (139) 
2.34857

>  <r_epik_Ionization_Penalty_Charging>  (139) 
2.34857

>  <r_epik_Ionization_Penalty_Neutral>  (139) 
1.61083e-06

>  <r_epik_State_Penalty>  (139) 
2.46842

>  <r_epik_Charging_Adjusted_Penalty>  (139) 
4.81699

>  <i_epik_Tot_Q>  (139) 
1

>  <i_epik_Tot_abs_Q>  (139) 
3

>  <s_lp_Force_Field>  (139) 
OPLS3e

>  <r_lp_Energy>  (139) 
213.939

>  <b_lp_Chiralities_Consistent>  (139) 
1

>  <s_lp_Variant>  (139) 
42:0-7

>  <s_i_glide_gridfile>  (139) 
pfpi4k_grid

>  <i_i_glide_lignum>  (139) 
29

>  <i_i_glide_rotatable_bonds>  (139) 
5

>  <r_i_docking_score>  (139) 
-1.69609

>  <r_i_glide_ligand_efficiency>  (139) 
-0.0484598

>  <r_i_glide_ligand_efficiency_sa>  (139) 
-0.158515

>  <r_i_glide_ligand_efficiency_ln>  (139) 
-0.37233

>  <r_i_glide_gscore>  (139) 
-1.69609

>  <r_i_glide_lipo>  (139) 
-0.10638

>  <r_i_glide_hbond>  (139) 
0

>  <r_i_glide_metal>  (139) 
-0

>  <r_i_glide_rewards>  (139) 
-0.125429

>  <r_i_glide_evdw>  (139) 
-18.7409

>  <r_i_glide_ecoul>  (139) 
-4.99105

>  <r_i_glide_erotb>  (139) 
0.262404

>  <r_i_glide_esite>  (139) 
-0.0409843

>  <r_i_glide_emodel>  (139) 
-24.2673

>  <r_i_glide_energy>  (139) 
-23.732

>  <r_i_glide_einternal>  (139) 
6.31622

>  <r_i_glide_intrahb_reward>  (139) 
-0

>  <i_i_glide_confnum>  (139) 
3

>  <i_i_glide_posenum>  (139) 
30

>  <r_i_glide_eff_state_penalty>  (139) 
0

>  <ligand_id>  (139) 
42

>  <original_smiles>  (139) 
C=CCN1CCC23CC(CNC2CO)C2(OC)C4CCC(O4)C4C1CC41c4c3ccc(O)c4OC12

>  <smiles>  (139) 
[H]OC([H])([H])C1([H])C23c4c([H])c([H])c([O-])c5c4C46C([H])([H])C([H])(C4([H])C4([H])OC([H])(C([H])([H])C4([H])[H])C(OC([H])([H])[H])(C6([H])O5)C([H])(C2([H])[H])C([H])([H])[N+]1([H])[H])[N+]([H])(C([H])([H])C([H])=C([H])[H])C([H])([H])C3([H])[H]

$$$$
43:0:0
     RDKit          3D

 11 12  0  0  1  0  0  0  0  0999 V2000
    1.5404   -6.9998    1.3682 C   0  0  0  0  0  0  0  0  0  0  0  0
    1.7879   -8.1546    2.0929 N   0  0  0  0  0  0  0  0  0  0  0  0
    0.6009   -8.4644    2.5155 C   0  0  0  0  0  0  0  0  0  0  0  0
   -0.0911   -9.3536    3.2392 N   0  0  0  0  0  0  0  0  0  0  0  0
   -1.3797   -8.8796    3.1799 C   0  0  0  0  0  0  0  0  0  0  0  0
   -1.5275   -7.7320    2.4802 N   0  0  0  0  0  0  0  0  0  0  0  0
   -0.2544   -7.5447    2.0813 N   0  0  0  0  0  0  0  0  0  0  0  0
    0.2660   -6.5730    1.3286 N   0  0  0  0  0  0  0  0  0  0  0  0
    0.1811  -10.1903    3.7405 H   0  0  0  0  0  0  0  0  0  0  0  0
    2.3304   -6.4599    0.8637 H   0  0  0  0  0  0  0  0  0  0  0  0
   -2.1677   -9.4386    3.6689 H   0  0  0  0  0  0  0  0  0  0  0  0
  1  8  2  0
  1  2  1  0
  1 10  1  0
  2  3  2  0
  3  7  1  0
  3  4  1  0
  4  9  1  0
  4  5  1  0
  5  6  2  0
  5 11  1  0
  6  7  1  0
  7  8  1  0
M  END
>  <i_m_ct_stereo_status>  (140) 
1

>  <s_m_source_file>  (140) 
/var/tmp/pbs.5076255.sched01/tmpgskxq70o/44i51uky9l.sdf

>  <i_m_source_file_index>  (140) 
30

>  <i_lp_mmshare_version>  (140) 
48012

>  <i_f3d_flags>  (140) 
0

>  <s_epik_input>  (140) 
bjFbY0hdbm4oYzEyKW5bY0hdW25IXTI=

>  <s_epik_cmdline>  (140) 
J2VwaWtfcHl0aG9uJywgJy1waHQnLCAnMi4wJywgJy1waCcsICc3LjAnLCAnLXRuJywgJzgnLCAnLW1hJywgJzIwMCcsICctaW1hZScsICc8aW5maWxlLm1hZT4nLCAnLW9tYWUnLCAnPG91dGZpbGUubWFlPic=

>  <r_lp_tautomer_probability>  (140) 
1

>  <r_epik_Ionization_Penalty>  (140) 
6.41076e-08

>  <r_epik_Ionization_Penalty_Charging>  (140) 
0

>  <r_epik_Ionization_Penalty_Neutral>  (140) 
6.41076e-08

>  <r_epik_State_Penalty>  (140) 
-0

>  <r_epik_Charging_Adjusted_Penalty>  (140) 
0

>  <i_epik_Tot_Q>  (140) 
0

>  <i_epik_Tot_abs_Q>  (140) 
0

>  <s_lp_Force_Field>  (140) 
OPLS3e

>  <r_lp_Energy>  (140) 
5.19552

>  <b_lp_Chiralities_Consistent>  (140) 
1

>  <s_lp_Variant>  (140) 
43:0-1

>  <s_i_glide_gridfile>  (140) 
pfpi4k_grid

>  <i_i_glide_lignum>  (140) 
30

>  <i_i_glide_rotatable_bonds>  (140) 
0

>  <r_i_docking_score>  (140) 
-3.9596

>  <r_i_glide_ligand_efficiency>  (140) 
-0.494949

>  <r_i_glide_ligand_efficiency_sa>  (140) 
-0.989899

>  <r_i_glide_ligand_efficiency_ln>  (140) 
-1.28582

>  <r_i_glide_gscore>  (140) 
-3.9596

>  <r_i_glide_lipo>  (140) 
0

>  <r_i_glide_hbond>  (140) 
-0.157301

>  <r_i_glide_metal>  (140) 
-0

>  <r_i_glide_rewards>  (140) 
-2.25

>  <r_i_glide_evdw>  (140) 
-13.5367

>  <r_i_glide_ecoul>  (140) 
-4.16032

>  <r_i_glide_erotb>  (140) 
0

>  <r_i_glide_esite>  (140) 
-0.251411

>  <r_i_glide_emodel>  (140) 
-23.0515

>  <r_i_glide_energy>  (140) 
-17.697

>  <r_i_glide_einternal>  (140) 
0

>  <r_i_glide_intrahb_reward>  (140) 
-0

>  <i_i_glide_confnum>  (140) 
2

>  <i_i_glide_posenum>  (140) 
5

>  <r_i_glide_eff_state_penalty>  (140) 
0

>  <ligand_id>  (140) 
43

>  <original_smiles>  (140) 
c1nc2[nH]cnn2n1

>  <smiles>  (140) 
[H]c1nc2n([H])c([H])nn2n1

$$$$
43:0:1
     RDKit          3D

 11 12  0  0  1  0  0  0  0  0999 V2000
    7.1338   -3.2595   -0.6273 C   0  0  0  0  0  0  0  0  0  0  0  0
    6.8294   -2.2536   -1.5262 N   0  0  0  0  0  0  0  0  0  0  0  0
    5.5358   -2.3273   -1.5925 C   0  0  0  0  0  0  0  0  0  0  0  0
    4.4514   -1.7815   -2.1594 N   0  0  0  0  0  0  0  0  0  0  0  0
    3.4178   -2.5079   -1.6171 C   0  0  0  0  0  0  0  0  0  0  0  0
    3.7972   -3.4676   -0.7437 N   0  0  0  0  0  0  0  0  0  0  0  0
    5.1313   -3.2997   -0.7850 N   0  0  0  0  0  0  0  0  0  0  0  0
    6.0943   -3.9440   -0.1206 N   0  0  0  0  0  0  0  0  0  0  0  0
    4.3236   -1.0125   -2.8086 H   0  0  0  0  0  0  0  0  0  0  0  0
    8.1513   -3.4873   -0.3428 H   0  0  0  0  0  0  0  0  0  0  0  0
    2.4024   -2.2712   -1.9026 H   0  0  0  0  0  0  0  0  0  0  0  0
  1  8  2  0
  1  2  1  0
  1 10  1  0
  2  3  2  0
  3  7  1  0
  3  4  1  0
  4  9  1  0
  4  5  1  0
  5  6  2  0
  5 11  1  0
  6  7  1  0
  7  8  1  0
M  END
>  <i_m_ct_stereo_status>  (141) 
1

>  <s_m_source_file>  (141) 
/var/tmp/pbs.5076255.sched01/tmpgskxq70o/44i51uky9l.sdf

>  <i_m_source_file_index>  (141) 
30

>  <i_lp_mmshare_version>  (141) 
48012

>  <i_f3d_flags>  (141) 
0

>  <s_epik_input>  (141) 
bjFbY0hdbm4oYzEyKW5bY0hdW25IXTI=

>  <s_epik_cmdline>  (141) 
J2VwaWtfcHl0aG9uJywgJy1waHQnLCAnMi4wJywgJy1waCcsICc3LjAnLCAnLXRuJywgJzgnLCAnLW1hJywgJzIwMCcsICctaW1hZScsICc8aW5maWxlLm1hZT4nLCAnLW9tYWUnLCAnPG91dGZpbGUubWFlPic=

>  <r_lp_tautomer_probability>  (141) 
1

>  <r_epik_Ionization_Penalty>  (141) 
6.41076e-08

>  <r_epik_Ionization_Penalty_Charging>  (141) 
0

>  <r_epik_Ionization_Penalty_Neutral>  (141) 
6.41076e-08

>  <r_epik_State_Penalty>  (141) 
-0

>  <r_epik_Charging_Adjusted_Penalty>  (141) 
0

>  <i_epik_Tot_Q>  (141) 
0

>  <i_epik_Tot_abs_Q>  (141) 
0

>  <s_lp_Force_Field>  (141) 
OPLS3e

>  <r_lp_Energy>  (141) 
5.19552

>  <b_lp_Chiralities_Consistent>  (141) 
1

>  <s_lp_Variant>  (141) 
43:0-1

>  <s_i_glide_gridfile>  (141) 
pfpi4k_grid

>  <i_i_glide_lignum>  (141) 
30

>  <i_i_glide_rotatable_bonds>  (141) 
0

>  <r_i_docking_score>  (141) 
-3.77126

>  <r_i_glide_ligand_efficiency>  (141) 
-0.471408

>  <r_i_glide_ligand_efficiency_sa>  (141) 
-0.942816

>  <r_i_glide_ligand_efficiency_ln>  (141) 
-1.22466

>  <r_i_glide_gscore>  (141) 
-3.77126

>  <r_i_glide_lipo>  (141) 
0

>  <r_i_glide_hbond>  (141) 
-0.16

>  <r_i_glide_metal>  (141) 
-0

>  <r_i_glide_rewards>  (141) 
-2.51395

>  <r_i_glide_evdw>  (141) 
-11.9524

>  <r_i_glide_ecoul>  (141) 
-2.68945

>  <r_i_glide_erotb>  (141) 
0

>  <r_i_glide_esite>  (141) 
-0.0962736

>  <r_i_glide_emodel>  (141) 
-19.742

>  <r_i_glide_energy>  (141) 
-14.6418

>  <r_i_glide_einternal>  (141) 
0

>  <r_i_glide_intrahb_reward>  (141) 
-0

>  <i_i_glide_confnum>  (141) 
1

>  <i_i_glide_posenum>  (141) 
4

>  <r_i_glide_eff_state_penalty>  (141) 
0

>  <ligand_id>  (141) 
43

>  <original_smiles>  (141) 
c1nc2[nH]cnn2n1

>  <smiles>  (141) 
[H]c1nc2n([H])c([H])nn2n1

$$$$
43:0:2
     RDKit          3D

 11 12  0  0  1  0  0  0  0  0999 V2000
   -0.7247    0.0480    4.6888 C   0  0  0  0  0  0  0  0  0  0  0  0
   -0.1443    0.6947    3.6065 N   0  0  0  0  0  0  0  0  0  0  0  0
   -0.8364    1.7920    3.5442 C   0  0  0  0  0  0  0  0  0  0  0  0
   -0.9666    2.9440    2.8797 N   0  0  0  0  0  0  0  0  0  0  0  0
   -2.0232    3.5522    3.5061 C   0  0  0  0  0  0  0  0  0  0  0  0
   -2.5390    2.8630    4.5512 N   0  0  0  0  0  0  0  0  0  0  0  0
   -1.7509    1.7650    4.5081 N   0  0  0  0  0  0  0  0  0  0  0  0
   -1.7420    0.6855    5.2968 N   0  0  0  0  0  0  0  0  0  0  0  0
   -0.4867    3.3324    2.0576 H   0  0  0  0  0  0  0  0  0  0  0  0
   -0.3758   -0.9133    5.0323 H   0  0  0  0  0  0  0  0  0  0  0  0
   -2.3560    4.5120    3.1348 H   0  0  0  0  0  0  0  0  0  0  0  0
  1  8  2  0
  1  2  1  0
  1 10  1  0
  2  3  2  0
  3  7  1  0
  3  4  1  0
  4  9  1  0
  4  5  1  0
  5  6  2  0
  5 11  1  0
  6  7  1  0
  7  8  1  0
M  END
>  <i_m_ct_stereo_status>  (142) 
1

>  <s_m_source_file>  (142) 
/var/tmp/pbs.5076255.sched01/tmpgskxq70o/44i51uky9l.sdf

>  <i_m_source_file_index>  (142) 
30

>  <i_lp_mmshare_version>  (142) 
48012

>  <i_f3d_flags>  (142) 
0

>  <s_epik_input>  (142) 
bjFbY0hdbm4oYzEyKW5bY0hdW25IXTI=

>  <s_epik_cmdline>  (142) 
J2VwaWtfcHl0aG9uJywgJy1waHQnLCAnMi4wJywgJy1waCcsICc3LjAnLCAnLXRuJywgJzgnLCAnLW1hJywgJzIwMCcsICctaW1hZScsICc8aW5maWxlLm1hZT4nLCAnLW9tYWUnLCAnPG91dGZpbGUubWFlPic=

>  <r_lp_tautomer_probability>  (142) 
1

>  <r_epik_Ionization_Penalty>  (142) 
6.41076e-08

>  <r_epik_Ionization_Penalty_Charging>  (142) 
0

>  <r_epik_Ionization_Penalty_Neutral>  (142) 
6.41076e-08

>  <r_epik_State_Penalty>  (142) 
-0

>  <r_epik_Charging_Adjusted_Penalty>  (142) 
0

>  <i_epik_Tot_Q>  (142) 
0

>  <i_epik_Tot_abs_Q>  (142) 
0

>  <s_lp_Force_Field>  (142) 
OPLS3e

>  <r_lp_Energy>  (142) 
5.19552

>  <b_lp_Chiralities_Consistent>  (142) 
1

>  <s_lp_Variant>  (142) 
43:0-1

>  <s_i_glide_gridfile>  (142) 
pfpi4k_grid

>  <i_i_glide_lignum>  (142) 
30

>  <i_i_glide_rotatable_bonds>  (142) 
0

>  <r_i_docking_score>  (142) 
-3.65658

>  <r_i_glide_ligand_efficiency>  (142) 
-0.457073

>  <r_i_glide_ligand_efficiency_sa>  (142) 
-0.914146

>  <r_i_glide_ligand_efficiency_ln>  (142) 
-1.18742

>  <r_i_glide_gscore>  (142) 
-3.65658

>  <r_i_glide_lipo>  (142) 
0

>  <r_i_glide_hbond>  (142) 
-0.16

>  <r_i_glide_metal>  (142) 
-0

>  <r_i_glide_rewards>  (142) 
-2.25

>  <r_i_glide_evdw>  (142) 
-10.9045

>  <r_i_glide_ecoul>  (142) 
-3.09963

>  <r_i_glide_erotb>  (142) 
0

>  <r_i_glide_esite>  (142) 
-0.236416

>  <r_i_glide_emodel>  (142) 
-18.949

>  <r_i_glide_energy>  (142) 
-14.0041

>  <r_i_glide_einternal>  (142) 
0

>  <r_i_glide_intrahb_reward>  (142) 
-0

>  <i_i_glide_confnum>  (142) 
2

>  <i_i_glide_posenum>  (142) 
20

>  <r_i_glide_eff_state_penalty>  (142) 
0

>  <ligand_id>  (142) 
43

>  <original_smiles>  (142) 
c1nc2[nH]cnn2n1

>  <smiles>  (142) 
[H]c1nc2n([H])c([H])nn2n1

$$$$
44:0:0
     RDKit          3D

 22 24  0  0  1  0  0  0  0  0999 V2000
   -7.0239   -9.5061   -8.6902 O   0  0  0  0  0  0  0  0  0  0  0  0
   -7.3898   -8.4529   -8.1712 C   0  0  0  0  0  0  0  0  0  0  0  0
   -6.7152   -7.9185   -7.1121 O   0  0  0  0  0  0  0  0  0  0  0  0
   -7.0702   -6.7427   -6.4850 C   0  0  0  0  0  0  0  0  0  0  0  0
   -6.2772   -6.3136   -5.4017 C   0  0  0  0  0  0  0  0  0  0  0  0
   -6.5830   -5.1198   -4.7251 C   0  0  0  0  0  0  0  0  0  0  0  0
   -7.6965   -4.3588   -5.1219 C   0  0  0  0  0  0  0  0  0  0  0  0
   -8.4919   -4.7783   -6.2062 C   0  0  0  0  0  0  0  0  0  0  0  0
   -8.1828   -5.9720   -6.9015 C   0  0  0  0  0  0  0  0  0  0  0  0
   -8.9652   -6.4823   -8.0389 C   0  0  0  0  0  0  0  0  0  0  0  0
  -10.0403   -5.7672   -8.4520 N   0  0  0  0  0  0  0  0  0  0  0  0
  -10.7738   -6.2520   -9.4764 C   0  0  0  0  0  0  0  0  0  0  0  0
  -10.4568   -7.4391  -10.1593 C   0  0  0  0  0  0  0  0  0  0  0  0
   -9.3365   -8.1749   -9.7357 C   0  0  0  0  0  0  0  0  0  0  0  0
   -8.5749   -7.6924   -8.6520 C   0  0  0  0  0  0  0  0  0  0  0  0
   -5.4261   -6.9030   -5.0957 H   0  0  0  0  0  0  0  0  0  0  0  0
   -5.9650   -4.7873   -3.9067 H   0  0  0  0  0  0  0  0  0  0  0  0
   -7.9385   -3.4544   -4.5953 H   0  0  0  0  0  0  0  0  0  0  0  0
   -9.3436   -4.1759   -6.4930 H   0  0  0  0  0  0  0  0  0  0  0  0
  -11.6230   -5.6628   -9.7804 H   0  0  0  0  0  0  0  0  0  0  0  0
  -11.0618   -7.7761  -10.9879 H   0  0  0  0  0  0  0  0  0  0  0  0
   -9.0721   -9.0942  -10.2399 H   0  0  0  0  0  0  0  0  0  0  0  0
  1  2  2  0
  2 15  1  0
  2  3  1  0
  3  4  1  0
  4  9  2  0
  4  5  1  0
  5  6  2  0
  5 16  1  0
  6  7  1  0
  6 17  1  0
  7  8  2  0
  7 18  1  0
  8  9  1  0
  8 19  1  0
  9 10  1  0
 10 15  2  0
 10 11  1  0
 11 12  2  0
 12 13  1  0
 12 20  1  0
 13 14  2  0
 13 21  1  0
 14 15  1  0
 14 22  1  0
M  END
>  <i_m_ct_stereo_status>  (143) 
1

>  <s_m_source_file>  (143) 
/var/tmp/pbs.5076255.sched01/tmpgskxq70o/44i51uky9l.sdf

>  <i_m_source_file_index>  (143) 
31

>  <i_lp_mmshare_version>  (143) 
48012

>  <i_f3d_flags>  (143) 
0

>  <s_epik_input>  (143) 
bjFbY0hdW2NIXVtjSF1jKGMoPU8pbzIpYzFjKGMyMylbY0hdW2NIXVtjSF1bY0hdMw==

>  <s_epik_cmdline>  (143) 
J2VwaWtfcHl0aG9uJywgJy1waHQnLCAnMi4wJywgJy1waCcsICc3LjAnLCAnLXRuJywgJzgnLCAnLW1hJywgJzIwMCcsICctaW1hZScsICc8aW5maWxlLm1hZT4nLCAnLW9tYWUnLCAnPG91dGZpbGUubWFlPic=

>  <r_epik_Ionization_Penalty>  (143) 
0.000332998

>  <r_epik_Ionization_Penalty_Charging>  (143) 
0

>  <r_epik_Ionization_Penalty_Neutral>  (143) 
0.000332998

>  <r_epik_State_Penalty>  (143) 
0.000201589

>  <r_epik_Charging_Adjusted_Penalty>  (143) 
0.000201589

>  <i_epik_Tot_Q>  (143) 
0

>  <i_epik_Tot_abs_Q>  (143) 
0

>  <s_lp_Force_Field>  (143) 
OPLS3e

>  <r_lp_Energy>  (143) 
25.9842

>  <b_lp_Chiralities_Consistent>  (143) 
1

>  <s_lp_Variant>  (143) 
44:0-1

>  <s_i_glide_gridfile>  (143) 
pfpi4k_grid

>  <i_i_glide_lignum>  (143) 
31

>  <i_i_glide_rotatable_bonds>  (143) 
0

>  <r_i_docking_score>  (143) 
-5.96194

>  <r_i_glide_ligand_efficiency>  (143) 
-0.397463

>  <r_i_glide_ligand_efficiency_sa>  (143) 
-0.980227

>  <r_i_glide_ligand_efficiency_ln>  (143) 
-1.60784

>  <r_i_glide_gscore>  (143) 
-5.96194

>  <r_i_glide_lipo>  (143) 
-2.14216

>  <r_i_glide_hbond>  (143) 
0

>  <r_i_glide_metal>  (143) 
-0

>  <r_i_glide_rewards>  (143) 
-2.58128

>  <r_i_glide_evdw>  (143) 
-22.8633

>  <r_i_glide_ecoul>  (143) 
-0.635531

>  <r_i_glide_erotb>  (143) 
0

>  <r_i_glide_esite>  (143) 
0

>  <r_i_glide_emodel>  (143) 
-32.224

>  <r_i_glide_energy>  (143) 
-23.4988

>  <r_i_glide_einternal>  (143) 
0

>  <r_i_glide_intrahb_reward>  (143) 
-0

>  <i_i_glide_confnum>  (143) 
1

>  <i_i_glide_posenum>  (143) 
1

>  <r_i_glide_eff_state_penalty>  (143) 
0

>  <ligand_id>  (143) 
44

>  <original_smiles>  (143) 
O=c1oc2ccccc2c2ncccc12

>  <smiles>  (143) 
[H]c1nc2c(c([H])c1[H])c(=O)oc1c([H])c([H])c([H])c([H])c12

$$$$
44:0:1
     RDKit          3D

 22 24  0  0  1  0  0  0  0  0999 V2000
   -7.4326   -9.7915   -9.1246 O   0  0  0  0  0  0  0  0  0  0  0  0
   -7.5418   -8.7799   -8.4329 C   0  0  0  0  0  0  0  0  0  0  0  0
   -6.6759   -8.5346   -7.4094 O   0  0  0  0  0  0  0  0  0  0  0  0
   -6.7426   -7.4289   -6.5885 C   0  0  0  0  0  0  0  0  0  0  0  0
   -5.7752   -7.3121   -5.5707 C   0  0  0  0  0  0  0  0  0  0  0  0
   -5.7847   -6.2060   -4.7047 C   0  0  0  0  0  0  0  0  0  0  0  0
   -6.7659   -5.2070   -4.8492 C   0  0  0  0  0  0  0  0  0  0  0  0
   -7.7371   -5.3199   -5.8665 C   0  0  0  0  0  0  0  0  0  0  0  0
   -7.7316   -6.4293   -6.7466 C   0  0  0  0  0  0  0  0  0  0  0  0
   -8.7050   -6.6180   -7.8372 C   0  0  0  0  0  0  0  0  0  0  0  0
   -9.6651   -5.6764   -8.0092 N   0  0  0  0  0  0  0  0  0  0  0  0
  -10.5736   -5.8627   -8.9888 C   0  0  0  0  0  0  0  0  0  0  0  0
  -10.5547   -6.9671   -9.8596 C   0  0  0  0  0  0  0  0  0  0  0  0
   -9.5547   -7.9395   -9.6851 C   0  0  0  0  0  0  0  0  0  0  0  0
   -8.6094   -7.7656   -8.6530 C   0  0  0  0  0  0  0  0  0  0  0  0
   -5.0230   -8.0774   -5.4575 H   0  0  0  0  0  0  0  0  0  0  0  0
   -5.0432   -6.1327   -3.9250 H   0  0  0  0  0  0  0  0  0  0  0  0
   -6.7737   -4.3587   -4.1785 H   0  0  0  0  0  0  0  0  0  0  0  0
   -8.4872   -4.5461   -5.9613 H   0  0  0  0  0  0  0  0  0  0  0  0
  -11.3294   -5.1017   -9.0995 H   0  0  0  0  0  0  0  0  0  0  0  0
  -11.2959   -7.0674  -10.6400 H   0  0  0  0  0  0  0  0  0  0  0  0
   -9.5221   -8.8037  -10.3355 H   0  0  0  0  0  0  0  0  0  0  0  0
  1  2  2  0
  2 15  1  0
  2  3  1  0
  3  4  1  0
  4  9  2  0
  4  5  1  0
  5  6  2  0
  5 16  1  0
  6  7  1  0
  6 17  1  0
  7  8  2  0
  7 18  1  0
  8  9  1  0
  8 19  1  0
  9 10  1  0
 10 15  2  0
 10 11  1  0
 11 12  2  0
 12 13  1  0
 12 20  1  0
 13 14  2  0
 13 21  1  0
 14 15  1  0
 14 22  1  0
M  END
>  <i_m_ct_stereo_status>  (144) 
1

>  <s_m_source_file>  (144) 
/var/tmp/pbs.5076255.sched01/tmpgskxq70o/44i51uky9l.sdf

>  <i_m_source_file_index>  (144) 
31

>  <i_lp_mmshare_version>  (144) 
48012

>  <i_f3d_flags>  (144) 
0

>  <s_epik_input>  (144) 
bjFbY0hdW2NIXVtjSF1jKGMoPU8pbzIpYzFjKGMyMylbY0hdW2NIXVtjSF1bY0hdMw==

>  <s_epik_cmdline>  (144) 
J2VwaWtfcHl0aG9uJywgJy1waHQnLCAnMi4wJywgJy1waCcsICc3LjAnLCAnLXRuJywgJzgnLCAnLW1hJywgJzIwMCcsICctaW1hZScsICc8aW5maWxlLm1hZT4nLCAnLW9tYWUnLCAnPG91dGZpbGUubWFlPic=

>  <r_epik_Ionization_Penalty>  (144) 
0.000332998

>  <r_epik_Ionization_Penalty_Charging>  (144) 
0

>  <r_epik_Ionization_Penalty_Neutral>  (144) 
0.000332998

>  <r_epik_State_Penalty>  (144) 
0.000201589

>  <r_epik_Charging_Adjusted_Penalty>  (144) 
0.000201589

>  <i_epik_Tot_Q>  (144) 
0

>  <i_epik_Tot_abs_Q>  (144) 
0

>  <s_lp_Force_Field>  (144) 
OPLS3e

>  <r_lp_Energy>  (144) 
25.9842

>  <b_lp_Chiralities_Consistent>  (144) 
1

>  <s_lp_Variant>  (144) 
44:0-1

>  <s_i_glide_gridfile>  (144) 
pfpi4k_grid

>  <i_i_glide_lignum>  (144) 
31

>  <i_i_glide_rotatable_bonds>  (144) 
0

>  <r_i_docking_score>  (144) 
-5.65884

>  <r_i_glide_ligand_efficiency>  (144) 
-0.377256

>  <r_i_glide_ligand_efficiency_sa>  (144) 
-0.930393

>  <r_i_glide_ligand_efficiency_ln>  (144) 
-1.5261

>  <r_i_glide_gscore>  (144) 
-5.65884

>  <r_i_glide_lipo>  (144) 
-2.15378

>  <r_i_glide_hbond>  (144) 
0

>  <r_i_glide_metal>  (144) 
-0

>  <r_i_glide_rewards>  (144) 
-2.31104

>  <r_i_glide_evdw>  (144) 
-23.0525

>  <r_i_glide_ecoul>  (144) 
-0.27599

>  <r_i_glide_erotb>  (144) 
0

>  <r_i_glide_esite>  (144) 
0

>  <r_i_glide_emodel>  (144) 
-31.6096

>  <r_i_glide_energy>  (144) 
-23.3285

>  <r_i_glide_einternal>  (144) 
0

>  <r_i_glide_intrahb_reward>  (144) 
-0

>  <i_i_glide_confnum>  (144) 
2

>  <i_i_glide_posenum>  (144) 
16

>  <r_i_glide_eff_state_penalty>  (144) 
0

>  <ligand_id>  (144) 
44

>  <original_smiles>  (144) 
O=c1oc2ccccc2c2ncccc12

>  <smiles>  (144) 
[H]c1nc2c(c([H])c1[H])c(=O)oc1c([H])c([H])c([H])c([H])c12

$$$$
44:0:2
     RDKit          3D

 22 24  0  0  1  0  0  0  0  0999 V2000
    5.8082   -0.6882    1.5979 O   0  0  0  0  0  0  0  0  0  0  0  0
    5.0939   -1.2564    0.7720 C   0  0  0  0  0  0  0  0  0  0  0  0
    4.9650   -0.7723   -0.4949 O   0  0  0  0  0  0  0  0  0  0  0  0
    4.1806   -1.3520   -1.4683 C   0  0  0  0  0  0  0  0  0  0  0  0
    4.1300   -0.7264   -2.7300 C   0  0  0  0  0  0  0  0  0  0  0  0
    3.3544   -1.2675   -3.7708 C   0  0  0  0  0  0  0  0  0  0  0  0
    2.6141   -2.4417   -3.5403 C   0  0  0  0  0  0  0  0  0  0  0  0
    2.6462   -3.0577   -2.2767 C   0  0  0  0  0  0  0  0  0  0  0  0
    3.4346   -2.5285   -1.2292 C   0  0  0  0  0  0  0  0  0  0  0  0
    3.5223   -3.1225    0.1151 C   0  0  0  0  0  0  0  0  0  0  0  0
    2.8214   -4.2553    0.3710 N   0  0  0  0  0  0  0  0  0  0  0  0
    2.9236   -4.8081    1.5973 C   0  0  0  0  0  0  0  0  0  0  0  0
    3.7070   -4.2608    2.6289 C   0  0  0  0  0  0  0  0  0  0  0  0
    4.4296   -3.0829    2.3655 C   0  0  0  0  0  0  0  0  0  0  0  0
    4.3397   -2.5005    1.0848 C   0  0  0  0  0  0  0  0  0  0  0  0
    4.6718    0.1907   -2.8877 H   0  0  0  0  0  0  0  0  0  0  0  0
    3.3085   -0.7725   -4.7289 H   0  0  0  0  0  0  0  0  0  0  0  0
    1.9958   -2.8596   -4.3195 H   0  0  0  0  0  0  0  0  0  0  0  0
    2.0591   -3.9526   -2.1218 H   0  0  0  0  0  0  0  0  0  0  0  0
    2.3566   -5.7082    1.7683 H   0  0  0  0  0  0  0  0  0  0  0  0
    3.7515   -4.7313    3.6000 H   0  0  0  0  0  0  0  0  0  0  0  0
    5.0416   -2.6399    3.1397 H   0  0  0  0  0  0  0  0  0  0  0  0
  1  2  2  0
  2 15  1  0
  2  3  1  0
  3  4  1  0
  4  9  2  0
  4  5  1  0
  5  6  2  0
  5 16  1  0
  6  7  1  0
  6 17  1  0
  7  8  2  0
  7 18  1  0
  8  9  1  0
  8 19  1  0
  9 10  1  0
 10 15  2  0
 10 11  1  0
 11 12  2  0
 12 13  1  0
 12 20  1  0
 13 14  2  0
 13 21  1  0
 14 15  1  0
 14 22  1  0
M  END
>  <i_m_ct_stereo_status>  (145) 
1

>  <s_m_source_file>  (145) 
/var/tmp/pbs.5076255.sched01/tmpgskxq70o/44i51uky9l.sdf

>  <i_m_source_file_index>  (145) 
31

>  <i_lp_mmshare_version>  (145) 
48012

>  <i_f3d_flags>  (145) 
0

>  <s_epik_input>  (145) 
bjFbY0hdW2NIXVtjSF1jKGMoPU8pbzIpYzFjKGMyMylbY0hdW2NIXVtjSF1bY0hdMw==

>  <s_epik_cmdline>  (145) 
J2VwaWtfcHl0aG9uJywgJy1waHQnLCAnMi4wJywgJy1waCcsICc3LjAnLCAnLXRuJywgJzgnLCAnLW1hJywgJzIwMCcsICctaW1hZScsICc8aW5maWxlLm1hZT4nLCAnLW9tYWUnLCAnPG91dGZpbGUubWFlPic=

>  <r_epik_Ionization_Penalty>  (145) 
0.000332998

>  <r_epik_Ionization_Penalty_Charging>  (145) 
0

>  <r_epik_Ionization_Penalty_Neutral>  (145) 
0.000332998

>  <r_epik_State_Penalty>  (145) 
0.000201589

>  <r_epik_Charging_Adjusted_Penalty>  (145) 
0.000201589

>  <i_epik_Tot_Q>  (145) 
0

>  <i_epik_Tot_abs_Q>  (145) 
0

>  <s_lp_Force_Field>  (145) 
OPLS3e

>  <r_lp_Energy>  (145) 
25.9842

>  <b_lp_Chiralities_Consistent>  (145) 
1

>  <s_lp_Variant>  (145) 
44:0-1

>  <s_i_glide_gridfile>  (145) 
pfpi4k_grid

>  <i_i_glide_lignum>  (145) 
31

>  <i_i_glide_rotatable_bonds>  (145) 
0

>  <r_i_docking_score>  (145) 
-3.8282

>  <r_i_glide_ligand_efficiency>  (145) 
-0.255213

>  <r_i_glide_ligand_efficiency_sa>  (145) 
-0.62941

>  <r_i_glide_ligand_efficiency_ln>  (145) 
-1.0324

>  <r_i_glide_gscore>  (145) 
-3.8282

>  <r_i_glide_lipo>  (145) 
-0.641918

>  <r_i_glide_hbond>  (145) 
0

>  <r_i_glide_metal>  (145) 
-0

>  <r_i_glide_rewards>  (145) 
-2.06462

>  <r_i_glide_evdw>  (145) 
-21.7507

>  <r_i_glide_ecoul>  (145) 
-0.227524

>  <r_i_glide_erotb>  (145) 
0

>  <r_i_glide_esite>  (145) 
0

>  <r_i_glide_emodel>  (145) 
-27.5755

>  <r_i_glide_energy>  (145) 
-21.9782

>  <r_i_glide_einternal>  (145) 
0

>  <r_i_glide_intrahb_reward>  (145) 
-0

>  <i_i_glide_confnum>  (145) 
1

>  <i_i_glide_posenum>  (145) 
2

>  <r_i_glide_eff_state_penalty>  (145) 
0

>  <ligand_id>  (145) 
44

>  <original_smiles>  (145) 
O=c1oc2ccccc2c2ncccc12

>  <smiles>  (145) 
[H]c1nc2c(c([H])c1[H])c(=O)oc1c([H])c([H])c([H])c([H])c12

$$$$
45:0:0
     RDKit          3D

 69 74  0  0  1  0  0  0  0  0999 V2000
   -0.4140   -9.5218    2.8264 C   0  0  0  0  0  0  0  0  0  0  0  0
   -0.3868   -8.1635    3.5505 C   0  0  0  0  0  0  0  0  0  0  0  0
   -1.7579   -7.4949    3.3903 C   0  0  0  0  0  0  0  0  0  0  0  0
   -0.1649   -8.4862    5.0263 C   0  0  0  0  0  0  0  0  0  0  0  0
    0.9306   -8.1692    5.7297 C   0  0  0  0  0  0  0  0  0  0  0  0
    2.0012   -7.4076    5.0713 C   0  0  0  0  0  0  0  0  0  0  0  0
    3.1785   -7.5466    5.3882 O   0  0  0  0  0  0  0  0  0  0  0  0
    1.6090   -6.4275    3.9336 C   0  0  2  0  0  0  0  0  0  0  0  0
    0.7459   -5.2891    4.5244 C   0  0  0  0  0  0  0  0  0  0  0  0
    0.7175   -7.2389    2.9683 C   0  0  0  0  0  0  0  0  0  0  0  0
    0.9119   -7.1891    1.6345 C   0  0  0  0  0  0  0  0  0  0  0  0
    1.9413   -6.3563    0.9190 C   0  0  1  0  0  0  0  0  0  0  0  0
    1.3403   -5.7959   -0.2296 O   0  0  0  0  0  0  0  0  0  0  0  0
    2.6199   -5.2816    1.7894 C   0  0  1  0  0  0  0  0  0  0  0  0
    2.9003   -5.8281    3.2204 C   0  0  1  0  0  0  0  0  0  0  0  0
    3.6267   -4.6850    3.9969 C   0  0  1  0  0  0  0  0  0  0  0  0
    3.8642   -4.8909    5.3744 O   0  0  0  0  0  0  0  0  0  0  0  0
    5.0085   -4.4169    3.3908 C   0  0  0  0  0  0  0  0  0  0  0  0
    4.9638   -4.0131    1.9007 C   0  0  1  0  0  0  0  0  0  0  0  0
    6.1882   -4.4651    1.3478 O   0  0  0  0  0  0  0  0  0  0  0  0
    3.8922   -4.7359    1.0449 C   0  0  2  0  0  0  0  0  0  0  0  0
    3.5475   -3.6990   -0.0601 C   0  0  0  0  0  0  0  0  0  0  0  0
    4.4927   -2.5149    0.1164 C   0  0  1  0  0  0  0  0  0  0  0  0
    3.9351   -1.2190   -0.4360 C   0  0  0  0  0  0  0  0  0  0  0  0
    3.9599   -1.0632   -1.6506 O   0  0  0  0  0  0  0  0  0  0  0  0
    3.3798   -0.3121    0.4663 O   0  0  0  0  0  0  0  0  0  0  0  0
    3.5073   -0.3766    1.8912 C   0  0  1  0  0  0  0  0  0  0  0  0
    2.3419    0.2806    2.5886 C   0  0  0  0  0  0  0  0  0  0  0  0
    2.2752    0.6983    3.9527 C   0  0  0  0  0  0  0  0  0  0  0  0
    1.0420    1.2611    4.1216 C   0  0  0  0  0  0  0  0  0  0  0  0
    0.3256    1.2209    2.9700 O   0  0  0  0  0  0  0  0  0  0  0  0
    1.1351    0.6214    2.0546 C   0  0  0  0  0  0  0  0  0  0  0  0
    3.7277   -1.8037    2.3854 C   0  0  0  0  0  0  0  0  0  0  0  0
    4.8610   -2.4836    1.5894 C   0  0  1  0  0  0  0  0  0  0  0  0
    6.1853   -1.7092    1.7991 C   0  0  0  0  0  0  0  0  0  0  0  0
    0.5664  -10.0009    2.8589 H   0  0  0  0  0  0  0  0  0  0  0  0
   -0.7353   -9.4510    1.7887 H   0  0  0  0  0  0  0  0  0  0  0  0
   -1.1140  -10.2140    3.2838 H   0  0  0  0  0  0  0  0  0  0  0  0
   -1.8007   -6.5503    3.9239 H   0  0  0  0  0  0  0  0  0  0  0  0
   -2.5586   -8.1226    3.7765 H   0  0  0  0  0  0  0  0  0  0  0  0
   -1.9815   -7.2975    2.3440 H   0  0  0  0  0  0  0  0  0  0  0  0
   -0.9718   -9.0489    5.4859 H   0  0  0  0  0  0  0  0  0  0  0  0
    1.0521   -8.4612    6.7693 H   0  0  0  0  0  0  0  0  0  0  0  0
   -0.1185   -5.6758    5.0570 H   0  0  0  0  0  0  0  0  0  0  0  0
    0.3828   -4.6261    3.7389 H   0  0  0  0  0  0  0  0  0  0  0  0
    1.2888   -4.6883    5.2485 H   0  0  0  0  0  0  0  0  0  0  0  0
    0.2822   -7.7657    0.9726 H   0  0  0  0  0  0  0  0  0  0  0  0
    2.7112   -7.0554    0.5958 H   0  0  0  0  0  0  0  0  0  0  0  0
    2.0090   -5.6899   -0.8995 H   0  0  0  0  0  0  0  0  0  0  0  0
    1.9221   -4.4578    1.9117 H   0  0  0  0  0  0  0  0  0  0  0  0
    3.6040   -6.6575    3.0974 H   0  0  0  0  0  0  0  0  0  0  0  0
    3.0059   -3.7926    3.9447 H   0  0  0  0  0  0  0  0  0  0  0  0
    4.2918   -5.7305    5.4951 H   0  0  0  0  0  0  0  0  0  0  0  0
    5.5390   -3.6596    3.9676 H   0  0  0  0  0  0  0  0  0  0  0  0
    5.6134   -5.3153    3.5208 H   0  0  0  0  0  0  0  0  0  0  0  0
    6.3053   -5.3721    1.5942 H   0  0  0  0  0  0  0  0  0  0  0  0
    4.3755   -5.5916    0.5561 H   0  0  0  0  0  0  0  0  0  0  0  0
    3.6712   -4.1253   -1.0562 H   0  0  0  0  0  0  0  0  0  0  0  0
    2.5079   -3.3659    0.0097 H   0  0  0  0  0  0  0  0  0  0  0  0
    5.3882   -2.6922   -0.4683 H   0  0  0  0  0  0  0  0  0  0  0  0
    4.3557    0.2514    2.1780 H   0  0  0  0  0  0  0  0  0  0  0  0
    3.0327    0.6244    4.7199 H   0  0  0  0  0  0  0  0  0  0  0  0
    0.5324    1.7303    4.9488 H   0  0  0  0  0  0  0  0  0  0  0  0
    0.6981    0.5412    1.0598 H   0  0  0  0  0  0  0  0  0  0  0  0
    3.9664   -1.7852    3.4447 H   0  0  0  0  0  0  0  0  0  0  0  0
    2.8005   -2.3450    2.2643 H   0  0  0  0  0  0  0  0  0  0  0  0
    6.1424   -0.6736    1.4767 H   0  0  0  0  0  0  0  0  0  0  0  0
    7.0135   -2.1631    1.2562 H   0  0  0  0  0  0  0  0  0  0  0  0
    6.4242   -1.7043    2.8545 H   0  0  0  0  0  0  0  0  0  0  0  0
  1  2  1  0
  1 36  1  0
  1 37  1  0
  1 38  1  0
  2 10  1  0
  2  3  1  0
  2  4  1  0
  3 39  1  0
  3 40  1  0
  3 41  1  0
  4  5  2  0
  4 42  1  0
  5  6  1  0
  5 43  1  0
  6  7  2  0
  6  8  1  0
  8 15  1  0
  8  9  1  1
  8 10  1  0
  9 44  1  0
  9 45  1  0
  9 46  1  0
 10 11  2  0
 11 12  1  0
 11 47  1  0
 12 13  1  0
 12 14  1  0
 12 48  1  6
 13 49  1  0
 14 21  1  0
 14 15  1  0
 14 50  1  1
 15 16  1  0
 15 51  1  6
 16 17  1  0
 16 18  1  0
 16 52  1  1
 17 53  1  0
 18 19  1  0
 18 54  1  0
 18 55  1  0
 19 34  1  0
 19 20  1  6
 19 21  1  0
 20 56  1  0
 21 22  1  0
 21 57  1  6
 22 23  1  0
 22 58  1  0
 22 59  1  0
 23 34  1  0
 23 24  1  0
 23 60  1  6
 24 25  2  0
 24 26  1  0
 26 27  1  0
 27 28  1  0
 27 33  1  0
 27 61  1  6
 28 32  2  0
 28 29  1  0
 29 30  2  0
 29 62  1  0
 30 31  1  0
 30 63  1  0
 31 32  1  0
 32 64  1  0
 33 34  1  0
 33 65  1  0
 33 66  1  0
 34 35  1  6
 35 67  1  0
 35 68  1  0
 35 69  1  0
M  END
>  <i_m_ct_stereo_status>  (146) 
1

>  <s_m_source_file>  (146) 
/var/tmp/pbs.5076255.sched01/tmpgskxq70o/44i51uky9l.sdf

>  <i_m_source_file_index>  (146) 
32

>  <i_lp_mmshare_version>  (146) 
48012

>  <i_f3d_flags>  (146) 
0

>  <s_epik_input>  (146) 
Tz1DMVtDSF09W0NIXUMoW0NIM10pKFtDSDNdKUMoW0NAQF0xMltDSDNdKT1bQ0hdW0NAQEhdKFtPSF0pW0NASF0zW0NASF0yW0NAQEhdKFtPSF0pW0NIMl1bQ0BAXTQoW09IXSlbQ0BASF0zW0NIMl1bQ0BASF01W0NAQF00KFtDSDNdKVtDSDJdW0NAQEhdKE9DNT1PKWM2W2NIXVtjSF1vW2NIXTY=

>  <s_epik_cmdline>  (146) 
J2VwaWtfcHl0aG9uJywgJy1waHQnLCAnMi4wJywgJy1waCcsICc3LjAnLCAnLXRuJywgJzgnLCAnLW1hJywgJzIwMCcsICctaW1hZScsICc8aW5maWxlLm1hZT4nLCAnLW9tYWUnLCAnPG91dGZpbGUubWFlPic=

>  <r_lp_tautomer_probability>  (146) 
1

>  <r_epik_Ionization_Penalty>  (146) 
2.65451e-07

>  <r_epik_Ionization_Penalty_Charging>  (146) 
0

>  <r_epik_Ionization_Penalty_Neutral>  (146) 
2.65451e-07

>  <r_epik_State_Penalty>  (146) 
-0

>  <r_epik_Charging_Adjusted_Penalty>  (146) 
0

>  <i_epik_Tot_Q>  (146) 
0

>  <i_epik_Tot_abs_Q>  (146) 
0

>  <s_epik_Chemistry_Notes>  (146) 
This compound has an ester and may undergo hydrolysis at high or low pH.

>  <s_lp_Force_Field>  (146) 
OPLS3e

>  <r_lp_Energy>  (146) 
66.5152

>  <b_lp_Chiralities_Consistent>  (146) 
1

>  <s_lp_Variant>  (146) 
45:0-1

>  <s_i_glide_gridfile>  (146) 
pfpi4k_grid

>  <i_i_glide_lignum>  (146) 
32

>  <i_i_glide_rotatable_bonds>  (146) 
4

>  <r_i_docking_score>  (146) 
-4.26285

>  <r_i_glide_ligand_efficiency>  (146) 
-0.121796

>  <r_i_glide_ligand_efficiency_sa>  (146) 
-0.398402

>  <r_i_glide_ligand_efficiency_ln>  (146) 
-0.935791

>  <r_i_glide_gscore>  (146) 
-4.26285

>  <r_i_glide_lipo>  (146) 
-0.227974

>  <r_i_glide_hbond>  (146) 
-0.706419

>  <r_i_glide_metal>  (146) 
-0

>  <r_i_glide_rewards>  (146) 
-0.618873

>  <r_i_glide_evdw>  (146) 
-32.6652

>  <r_i_glide_ecoul>  (146) 
-7.38196

>  <r_i_glide_erotb>  (146) 
0.0871496

>  <r_i_glide_esite>  (146) 
-0.0561834

>  <r_i_glide_emodel>  (146) 
-54.151

>  <r_i_glide_energy>  (146) 
-40.0471

>  <r_i_glide_einternal>  (146) 
0.633673

>  <r_i_glide_intrahb_reward>  (146) 
-0.5

>  <i_i_glide_confnum>  (146) 
3

>  <i_i_glide_posenum>  (146) 
15

>  <r_i_glide_eff_state_penalty>  (146) 
0

>  <ligand_id>  (146) 
45

>  <original_smiles>  (146) 
CC1(C)C=CC(=O)C2(C)C1=CC(O)C1C2C(O)CC2(O)C1CC1C(=O)OC(c3ccoc3)CC12C

>  <smiles>  (146) 
[H]OC1([H])C([H])=C2C(C([H])([H])[H])(C([H])([H])[H])C([H])=C([H])C(=O)C2(C([H])([H])[H])C2([H])C([H])(O[H])C([H])([H])C3(O[H])C([H])(C([H])([H])C4([H])C(=O)OC([H])(c5c([H])oc([H])c5[H])C([H])([H])C43C([H])([H])[H])C12[H]

$$$$
45:0:1
     RDKit          3D

 69 74  0  0  1  0  0  0  0  0999 V2000
   -0.3781   -9.5307    2.8394 C   0  0  0  0  0  0  0  0  0  0  0  0
   -0.3585   -8.1691    3.5596 C   0  0  0  0  0  0  0  0  0  0  0  0
   -1.7331   -7.5010    3.4017 C   0  0  0  0  0  0  0  0  0  0  0  0
   -0.1320   -8.4884    5.0337 C   0  0  0  0  0  0  0  0  0  0  0  0
    0.9645   -8.1697    5.7367 C   0  0  0  0  0  0  0  0  0  0  0  0
    2.0314   -7.4060    5.0811 C   0  0  0  0  0  0  0  0  0  0  0  0
    3.2096   -7.5427    5.4106 O   0  0  0  0  0  0  0  0  0  0  0  0
    1.6353   -6.4311    3.9433 C   0  0  2  0  0  0  0  0  0  0  0  0
    0.7653   -5.2957    4.5340 C   0  0  0  0  0  0  0  0  0  0  0  0
    0.7418   -7.2414    2.9744 C   0  0  0  0  0  0  0  0  0  0  0  0
    0.9327   -7.1892    1.6423 C   0  0  0  0  0  0  0  0  0  0  0  0
    1.9597   -6.3564    0.9208 C   0  0  1  0  0  0  0  0  0  0  0  0
    1.3540   -5.7920   -0.2256 O   0  0  0  0  0  0  0  0  0  0  0  0
    2.6355   -5.2784    1.7932 C   0  0  1  0  0  0  0  0  0  0  0  0
    2.9200   -5.8255    3.2250 C   0  0  1  0  0  0  0  0  0  0  0  0
    3.6429   -4.6796    4.0035 C   0  0  1  0  0  0  0  0  0  0  0  0
    3.8830   -4.8855    5.3834 O   0  0  0  0  0  0  0  0  0  0  0  0
    5.0202   -4.4022    3.4008 C   0  0  0  0  0  0  0  0  0  0  0  0
    4.9737   -3.9978    1.9131 C   0  0  1  0  0  0  0  0  0  0  0  0
    6.2109   -4.4496    1.3909 O   0  0  0  0  0  0  0  0  0  0  0  0
    3.9063   -4.7213    1.0527 C   0  0  2  0  0  0  0  0  0  0  0  0
    3.5547   -3.6887   -0.0563 C   0  0  0  0  0  0  0  0  0  0  0  0
    4.4947   -2.4982    0.1201 C   0  0  1  0  0  0  0  0  0  0  0  0
    3.9258   -1.1975   -0.4316 C   0  0  0  0  0  0  0  0  0  0  0  0
    3.9484   -1.0336   -1.6430 O   0  0  0  0  0  0  0  0  0  0  0  0
    3.3653   -0.3008    0.4769 O   0  0  0  0  0  0  0  0  0  0  0  0
    3.4999   -0.3677    1.8981 C   0  0  1  0  0  0  0  0  0  0  0  0
    2.3362    0.2875    2.5941 C   0  0  0  0  0  0  0  0  0  0  0  0
    2.2674    0.6955    3.9537 C   0  0  0  0  0  0  0  0  0  0  0  0
    1.0304    1.2589    4.1305 C   0  0  0  0  0  0  0  0  0  0  0  0
    0.3157    1.2212    2.9805 O   0  0  0  0  0  0  0  0  0  0  0  0
    1.1197    0.6280    2.0579 C   0  0  0  0  0  0  0  0  0  0  0  0
    3.7312   -1.7948    2.3896 C   0  0  0  0  0  0  0  0  0  0  0  0
    4.8683   -2.4676    1.5953 C   0  0  1  0  0  0  0  0  0  0  0  0
    6.1976   -1.6881    1.8058 C   0  0  0  0  0  0  0  0  0  0  0  0
    0.6028  -10.0068    2.8703 H   0  0  0  0  0  0  0  0  0  0  0  0
   -0.7036   -9.4683    1.8030 H   0  0  0  0  0  0  0  0  0  0  0  0
   -1.0745  -10.2161    3.3160 H   0  0  0  0  0  0  0  0  0  0  0  0
   -1.7834   -6.5565    3.9366 H   0  0  0  0  0  0  0  0  0  0  0  0
   -2.5324   -8.1321    3.7908 H   0  0  0  0  0  0  0  0  0  0  0  0
   -1.9582   -7.3042    2.3543 H   0  0  0  0  0  0  0  0  0  0  0  0
   -0.9305   -9.0564    5.5043 H   0  0  0  0  0  0  0  0  0  0  0  0
    1.0859   -8.4658    6.7738 H   0  0  0  0  0  0  0  0  0  0  0  0
   -0.0966   -5.6837    5.0699 H   0  0  0  0  0  0  0  0  0  0  0  0
    0.3948   -4.6363    3.7481 H   0  0  0  0  0  0  0  0  0  0  0  0
    1.3060   -4.6891    5.2563 H   0  0  0  0  0  0  0  0  0  0  0  0
    0.3050   -7.7712    0.9824 H   0  0  0  0  0  0  0  0  0  0  0  0
    2.7257   -7.0531    0.5897 H   0  0  0  0  0  0  0  0  0  0  0  0
    2.0247   -5.6686   -0.8891 H   0  0  0  0  0  0  0  0  0  0  0  0
    1.9296   -4.4596    1.9179 H   0  0  0  0  0  0  0  0  0  0  0  0
    3.6282   -6.6477    3.0976 H   0  0  0  0  0  0  0  0  0  0  0  0
    3.0207   -3.7896    3.9495 H   0  0  0  0  0  0  0  0  0  0  0  0
    4.3069   -5.7223    5.4988 H   0  0  0  0  0  0  0  0  0  0  0  0
    5.5444   -3.6423    3.9793 H   0  0  0  0  0  0  0  0  0  0  0  0
    5.6221   -5.3025    3.5172 H   0  0  0  0  0  0  0  0  0  0  0  0
    6.8991   -4.0822    1.9187 H   0  0  0  0  0  0  0  0  0  0  0  0
    4.4018   -5.5707    0.5681 H   0  0  0  0  0  0  0  0  0  0  0  0
    3.6781   -4.1184   -1.0537 H   0  0  0  0  0  0  0  0  0  0  0  0
    2.5140   -3.3613    0.0130 H   0  0  0  0  0  0  0  0  0  0  0  0
    5.3879   -2.6789   -0.4681 H   0  0  0  0  0  0  0  0  0  0  0  0
    4.3520    0.2549    2.1660 H   0  0  0  0  0  0  0  0  0  0  0  0
    3.0258    0.6178    4.7203 H   0  0  0  0  0  0  0  0  0  0  0  0
    0.5245    1.7207    4.9644 H   0  0  0  0  0  0  0  0  0  0  0  0
    0.6905    0.5461    1.0663 H   0  0  0  0  0  0  0  0  0  0  0  0
    3.9657   -1.7771    3.4486 H   0  0  0  0  0  0  0  0  0  0  0  0
    2.8051   -2.3425    2.2652 H   0  0  0  0  0  0  0  0  0  0  0  0
    6.1420   -0.6514    1.4849 H   0  0  0  0  0  0  0  0  0  0  0  0
    7.0248   -2.1219    1.2478 H   0  0  0  0  0  0  0  0  0  0  0  0
    6.4422   -1.6851    2.8616 H   0  0  0  0  0  0  0  0  0  0  0  0
  1  2  1  0
  1 36  1  0
  1 37  1  0
  1 38  1  0
  2 10  1  0
  2  3  1  0
  2  4  1  0
  3 39  1  0
  3 40  1  0
  3 41  1  0
  4  5  2  0
  4 42  1  0
  5  6  1  0
  5 43  1  0
  6  7  2  0
  6  8  1  0
  8 15  1  0
  8  9  1  1
  8 10  1  0
  9 44  1  0
  9 45  1  0
  9 46  1  0
 10 11  2  0
 11 12  1  0
 11 47  1  0
 12 13  1  0
 12 14  1  0
 12 48  1  6
 13 49  1  0
 14 21  1  0
 14 15  1  0
 14 50  1  1
 15 16  1  0
 15 51  1  6
 16 17  1  0
 16 18  1  0
 16 52  1  1
 17 53  1  0
 18 19  1  0
 18 54  1  0
 18 55  1  0
 19 34  1  0
 19 20  1  6
 19 21  1  0
 20 56  1  0
 21 22  1  0
 21 57  1  6
 22 23  1  0
 22 58  1  0
 22 59  1  0
 23 34  1  0
 23 24  1  0
 23 60  1  6
 24 25  2  0
 24 26  1  0
 26 27  1  0
 27 28  1  0
 27 33  1  0
 27 61  1  6
 28 32  2  0
 28 29  1  0
 29 30  2  0
 29 62  1  0
 30 31  1  0
 30 63  1  0
 31 32  1  0
 32 64  1  0
 33 34  1  0
 33 65  1  0
 33 66  1  0
 34 35  1  6
 35 67  1  0
 35 68  1  0
 35 69  1  0
M  END
>  <i_m_ct_stereo_status>  (147) 
1

>  <s_m_source_file>  (147) 
/var/tmp/pbs.5076255.sched01/tmpgskxq70o/44i51uky9l.sdf

>  <i_m_source_file_index>  (147) 
32

>  <i_lp_mmshare_version>  (147) 
48012

>  <i_f3d_flags>  (147) 
0

>  <s_epik_input>  (147) 
Tz1DMVtDSF09W0NIXUMoW0NIM10pKFtDSDNdKUMoW0NAQF0xMltDSDNdKT1bQ0hdW0NAQEhdKFtPSF0pW0NASF0zW0NASF0yW0NAQEhdKFtPSF0pW0NIMl1bQ0BAXTQoW09IXSlbQ0BASF0zW0NIMl1bQ0BASF01W0NAQF00KFtDSDNdKVtDSDJdW0NAQEhdKE9DNT1PKWM2W2NIXVtjSF1vW2NIXTY=

>  <s_epik_cmdline>  (147) 
J2VwaWtfcHl0aG9uJywgJy1waHQnLCAnMi4wJywgJy1waCcsICc3LjAnLCAnLXRuJywgJzgnLCAnLW1hJywgJzIwMCcsICctaW1hZScsICc8aW5maWxlLm1hZT4nLCAnLW9tYWUnLCAnPG91dGZpbGUubWFlPic=

>  <r_lp_tautomer_probability>  (147) 
1

>  <r_epik_Ionization_Penalty>  (147) 
2.65451e-07

>  <r_epik_Ionization_Penalty_Charging>  (147) 
0

>  <r_epik_Ionization_Penalty_Neutral>  (147) 
2.65451e-07

>  <r_epik_State_Penalty>  (147) 
-0

>  <r_epik_Charging_Adjusted_Penalty>  (147) 
0

>  <i_epik_Tot_Q>  (147) 
0

>  <i_epik_Tot_abs_Q>  (147) 
0

>  <s_epik_Chemistry_Notes>  (147) 
This compound has an ester and may undergo hydrolysis at high or low pH.

>  <s_lp_Force_Field>  (147) 
OPLS3e

>  <r_lp_Energy>  (147) 
66.5152

>  <b_lp_Chiralities_Consistent>  (147) 
1

>  <s_lp_Variant>  (147) 
45:0-1

>  <s_i_glide_gridfile>  (147) 
pfpi4k_grid

>  <i_i_glide_lignum>  (147) 
32

>  <i_i_glide_rotatable_bonds>  (147) 
4

>  <r_i_docking_score>  (147) 
-4.20979

>  <r_i_glide_ligand_efficiency>  (147) 
-0.12028

>  <r_i_glide_ligand_efficiency_sa>  (147) 
-0.393443

>  <r_i_glide_ligand_efficiency_ln>  (147) 
-0.924142

>  <r_i_glide_gscore>  (147) 
-4.20979

>  <r_i_glide_lipo>  (147) 
-0.229313

>  <r_i_glide_hbond>  (147) 
-0.696641

>  <r_i_glide_metal>  (147) 
-0

>  <r_i_glide_rewards>  (147) 
-0.618873

>  <r_i_glide_evdw>  (147) 
-32.4117

>  <r_i_glide_ecoul>  (147) 
-7.17263

>  <r_i_glide_erotb>  (147) 
0.0871496

>  <r_i_glide_esite>  (147) 
-0.0556319

>  <r_i_glide_emodel>  (147) 
-53.926

>  <r_i_glide_energy>  (147) 
-39.5843

>  <r_i_glide_einternal>  (147) 
0.629314

>  <r_i_glide_intrahb_reward>  (147) 
-0.5

>  <i_i_glide_confnum>  (147) 
1

>  <i_i_glide_posenum>  (147) 
24

>  <r_i_glide_eff_state_penalty>  (147) 
0

>  <ligand_id>  (147) 
45

>  <original_smiles>  (147) 
CC1(C)C=CC(=O)C2(C)C1=CC(O)C1C2C(O)CC2(O)C1CC1C(=O)OC(c3ccoc3)CC12C

>  <smiles>  (147) 
[H]OC1([H])C([H])=C2C(C([H])([H])[H])(C([H])([H])[H])C([H])=C([H])C(=O)C2(C([H])([H])[H])C2([H])C([H])(O[H])C([H])([H])C3(O[H])C([H])(C([H])([H])C4([H])C(=O)OC([H])(c5c([H])oc([H])c5[H])C([H])([H])C43C([H])([H])[H])C12[H]

$$$$
45:0:2
     RDKit          3D

 69 74  0  0  1  0  0  0  0  0999 V2000
   -1.5598   -8.5539    3.1720 C   0  0  0  0  0  0  0  0  0  0  0  0
   -0.2137   -7.8474    3.4563 C   0  0  0  0  0  0  0  0  0  0  0  0
    0.3271   -7.2527    2.1385 C   0  0  0  0  0  0  0  0  0  0  0  0
   -0.5436   -6.7061    4.4169 C   0  0  0  0  0  0  0  0  0  0  0  0
   -0.1337   -6.6059    5.6830 C   0  0  0  0  0  0  0  0  0  0  0  0
    0.7388   -7.6416    6.2398 C   0  0  0  0  0  0  0  0  0  0  0  0
    0.6911   -7.9398    7.4314 O   0  0  0  0  0  0  0  0  0  0  0  0
    1.7032   -8.3604    5.2537 C   0  0  2  0  0  0  0  0  0  0  0  0
    2.7254   -7.3266    4.7115 C   0  0  0  0  0  0  0  0  0  0  0  0
    0.8370   -8.8266    4.0563 C   0  0  0  0  0  0  0  0  0  0  0  0
    0.9492  -10.0754    3.5564 C   0  0  0  0  0  0  0  0  0  0  0  0
    1.8896  -11.1508    4.0507 C   0  0  1  0  0  0  0  0  0  0  0  0
    2.4561  -11.8103    2.9404 O   0  0  0  0  0  0  0  0  0  0  0  0
    3.0176  -10.6225    4.9694 C   0  0  1  0  0  0  0  0  0  0  0  0
    2.4640   -9.5623    5.9689 C   0  0  1  0  0  0  0  0  0  0  0  0
    3.6494   -9.1496    6.8996 C   0  0  1  0  0  0  0  0  0  0  0  0
    3.4219   -8.0776    7.7927 O   0  0  0  0  0  0  0  0  0  0  0  0
    4.0863  -10.3293    7.7716 C   0  0  0  0  0  0  0  0  0  0  0  0
    4.5384  -11.5667    6.9689 C   0  0  1  0  0  0  0  0  0  0  0  0
    4.2226  -12.6687    7.8038 O   0  0  0  0  0  0  0  0  0  0  0  0
    3.7615  -11.8297    5.6505 C   0  0  2  0  0  0  0  0  0  0  0  0
    4.7866  -12.5388    4.7273 C   0  0  0  0  0  0  0  0  0  0  0  0
    6.0726  -12.7581    5.5391 C   0  0  1  0  0  0  0  0  0  0  0  0
    7.3288  -12.8163    4.6521 C   0  0  0  0  0  0  0  0  0  0  0  0
    7.5802  -13.8428    4.0294 O   0  0  0  0  0  0  0  0  0  0  0  0
    8.0711  -11.6816    4.5237 O   0  0  0  0  0  0  0  0  0  0  0  0
    7.9941  -10.5615    5.4096 C   0  0  1  0  0  0  0  0  0  0  0  0
    8.5072   -9.3235    4.7249 C   0  0  0  0  0  0  0  0  0  0  0  0
    9.7259   -8.6331    4.9947 C   0  0  0  0  0  0  0  0  0  0  0  0
    9.7876   -7.5966    4.1100 C   0  0  0  0  0  0  0  0  0  0  0  0
    8.6869   -7.5728    3.3127 O   0  0  0  0  0  0  0  0  0  0  0  0
    7.9237   -8.6273    3.7000 C   0  0  0  0  0  0  0  0  0  0  0  0
    6.5833  -10.3615    5.9786 C   0  0  0  0  0  0  0  0  0  0  0  0
    6.0600  -11.6651    6.6198 C   0  0  1  0  0  0  0  0  0  0  0  0
    6.9419  -12.0576    7.8419 C   0  0  0  0  0  0  0  0  0  0  0  0
   -1.9214   -9.0511    4.0743 H   0  0  0  0  0  0  0  0  0  0  0  0
   -1.4934   -9.3036    2.3828 H   0  0  0  0  0  0  0  0  0  0  0  0
   -2.3273   -7.8394    2.8675 H   0  0  0  0  0  0  0  0  0  0  0  0
    1.2576   -6.7030    2.2929 H   0  0  0  0  0  0  0  0  0  0  0  0
   -0.3883   -6.5685    1.6794 H   0  0  0  0  0  0  0  0  0  0  0  0
    0.5381   -8.0377    1.4088 H   0  0  0  0  0  0  0  0  0  0  0  0
   -1.1950   -5.9373    4.0335 H   0  0  0  0  0  0  0  0  0  0  0  0
   -0.4430   -5.7880    6.3218 H   0  0  0  0  0  0  0  0  0  0  0  0
    2.2396   -6.4658    4.2566 H   0  0  0  0  0  0  0  0  0  0  0  0
    3.3714   -7.7709    3.9526 H   0  0  0  0  0  0  0  0  0  0  0  0
    3.3625   -6.9142    5.4909 H   0  0  0  0  0  0  0  0  0  0  0  0
    0.3451  -10.3741    2.7164 H   0  0  0  0  0  0  0  0  0  0  0  0
    1.2624  -11.8674    4.5867 H   0  0  0  0  0  0  0  0  0  0  0  0
    2.2597  -12.7403    2.9952 H   0  0  0  0  0  0  0  0  0  0  0  0
    3.7440  -10.0984    4.3493 H   0  0  0  0  0  0  0  0  0  0  0  0
    1.7223  -10.0867    6.5764 H   0  0  0  0  0  0  0  0  0  0  0  0
    4.4702   -8.8181    6.2705 H   0  0  0  0  0  0  0  0  0  0  0  0
    2.6538   -8.2778    8.3135 H   0  0  0  0  0  0  0  0  0  0  0  0
    4.8757  -10.0260    8.4588 H   0  0  0  0  0  0  0  0  0  0  0  0
    3.2461  -10.5946    8.4138 H   0  0  0  0  0  0  0  0  0  0  0  0
    3.2679  -12.7715    7.8038 H   0  0  0  0  0  0  0  0  0  0  0  0
    3.0016  -12.5747    5.8698 H   0  0  0  0  0  0  0  0  0  0  0  0
    4.3919  -13.4973    4.3810 H   0  0  0  0  0  0  0  0  0  0  0  0
    4.9881  -11.9447    3.8325 H   0  0  0  0  0  0  0  0  0  0  0  0
    5.9954  -13.7253    6.0334 H   0  0  0  0  0  0  0  0  0  0  0  0
    8.6843  -10.7137    6.2436 H   0  0  0  0  0  0  0  0  0  0  0  0
   10.4864   -8.8854    5.7241 H   0  0  0  0  0  0  0  0  0  0  0  0
   10.5167   -6.8284    3.9032 H   0  0  0  0  0  0  0  0  0  0  0  0
    7.0163   -8.7568    3.1266 H   0  0  0  0  0  0  0  0  0  0  0  0
    6.5868   -9.5498    6.7055 H   0  0  0  0  0  0  0  0  0  0  0  0
    5.9324  -10.0646    5.1602 H   0  0  0  0  0  0  0  0  0  0  0  0
    7.9816  -12.2235    7.5670 H   0  0  0  0  0  0  0  0  0  0  0  0
    6.6157  -12.9908    8.3047 H   0  0  0  0  0  0  0  0  0  0  0  0
    6.9172  -11.2879    8.6137 H   0  0  0  0  0  0  0  0  0  0  0  0
  1  2  1  0
  1 36  1  0
  1 37  1  0
  1 38  1  0
  2 10  1  0
  2  3  1  0
  2  4  1  0
  3 39  1  0
  3 40  1  0
  3 41  1  0
  4  5  2  0
  4 42  1  0
  5  6  1  0
  5 43  1  0
  6  7  2  0
  6  8  1  0
  8 15  1  0
  8  9  1  6
  8 10  1  0
  9 44  1  0
  9 45  1  0
  9 46  1  0
 10 11  2  0
 11 12  1  0
 11 47  1  0
 12 13  1  0
 12 14  1  0
 12 48  1  1
 13 49  1  0
 14 21  1  0
 14 15  1  0
 14 50  1  6
 15 16  1  0
 15 51  1  1
 16 17  1  0
 16 18  1  0
 16 52  1  6
 17 53  1  0
 18 19  1  0
 18 54  1  0
 18 55  1  0
 19 34  1  0
 19 20  1  1
 19 21  1  0
 20 56  1  0
 21 22  1  0
 21 57  1  1
 22 23  1  0
 22 58  1  0
 22 59  1  0
 23 34  1  0
 23 24  1  0
 23 60  1  1
 24 25  2  0
 24 26  1  0
 26 27  1  0
 27 28  1  0
 27 33  1  0
 27 61  1  1
 28 32  2  0
 28 29  1  0
 29 30  2  0
 29 62  1  0
 30 31  1  0
 30 63  1  0
 31 32  1  0
 32 64  1  0
 33 34  1  0
 33 65  1  0
 33 66  1  0
 34 35  1  1
 35 67  1  0
 35 68  1  0
 35 69  1  0
M  END
>  <i_m_ct_stereo_status>  (148) 
1

>  <s_m_source_file>  (148) 
/var/tmp/pbs.5076255.sched01/tmpgskxq70o/44i51uky9l.sdf

>  <i_m_source_file_index>  (148) 
32

>  <i_lp_mmshare_version>  (148) 
48012

>  <i_f3d_flags>  (148) 
0

>  <s_epik_input>  (148) 
Tz1DMVtDSF09W0NIXUMoW0NIM10pKFtDSDNdKUMoW0NAQF0xMltDSDNdKT1bQ0hdW0NAQEhdKFtPSF0pW0NASF0zW0NASF0yW0NAQEhdKFtPSF0pW0NIMl1bQ0BAXTQoW09IXSlbQ0BASF0zW0NIMl1bQ0BASF01W0NAQF00KFtDSDNdKVtDSDJdW0NAQEhdKE9DNT1PKWM2W2NIXVtjSF1vW2NIXTY=

>  <s_epik_cmdline>  (148) 
J2VwaWtfcHl0aG9uJywgJy1waHQnLCAnMi4wJywgJy1waCcsICc3LjAnLCAnLXRuJywgJzgnLCAnLW1hJywgJzIwMCcsICctaW1hZScsICc8aW5maWxlLm1hZT4nLCAnLW9tYWUnLCAnPG91dGZpbGUubWFlPic=

>  <r_lp_tautomer_probability>  (148) 
1

>  <r_epik_Ionization_Penalty>  (148) 
2.65451e-07

>  <r_epik_Ionization_Penalty_Charging>  (148) 
0

>  <r_epik_Ionization_Penalty_Neutral>  (148) 
2.65451e-07

>  <r_epik_State_Penalty>  (148) 
-0

>  <r_epik_Charging_Adjusted_Penalty>  (148) 
0

>  <i_epik_Tot_Q>  (148) 
0

>  <i_epik_Tot_abs_Q>  (148) 
0

>  <s_epik_Chemistry_Notes>  (148) 
This compound has an ester and may undergo hydrolysis at high or low pH.

>  <s_lp_Force_Field>  (148) 
OPLS3e

>  <r_lp_Energy>  (148) 
66.5152

>  <b_lp_Chiralities_Consistent>  (148) 
1

>  <s_lp_Variant>  (148) 
45:0-1

>  <s_i_glide_gridfile>  (148) 
pfpi4k_grid

>  <i_i_glide_lignum>  (148) 
32

>  <i_i_glide_rotatable_bonds>  (148) 
4

>  <r_i_docking_score>  (148) 
-2.95686

>  <r_i_glide_ligand_efficiency>  (148) 
-0.0844818

>  <r_i_glide_ligand_efficiency_sa>  (148) 
-0.276345

>  <r_i_glide_ligand_efficiency_ln>  (148) 
-0.649097

>  <r_i_glide_gscore>  (148) 
-2.95686

>  <r_i_glide_lipo>  (148) 
-0.0457092

>  <r_i_glide_hbond>  (148) 
-0.499478

>  <r_i_glide_metal>  (148) 
-0

>  <r_i_glide_rewards>  (148) 
-0.118873

>  <r_i_glide_evdw>  (148) 
-27.5375

>  <r_i_glide_ecoul>  (148) 
-6.58444

>  <r_i_glide_erotb>  (148) 
0.0871496

>  <r_i_glide_esite>  (148) 
-0.0154109

>  <r_i_glide_emodel>  (148) 
-40.1377

>  <r_i_glide_energy>  (148) 
-34.1219

>  <r_i_glide_einternal>  (148) 
1.43589

>  <r_i_glide_intrahb_reward>  (148) 
-0

>  <i_i_glide_confnum>  (148) 
3

>  <i_i_glide_posenum>  (148) 
6

>  <r_i_glide_eff_state_penalty>  (148) 
0

>  <ligand_id>  (148) 
45

>  <original_smiles>  (148) 
CC1(C)C=CC(=O)C2(C)C1=CC(O)C1C2C(O)CC2(O)C1CC1C(=O)OC(c3ccoc3)CC12C

>  <smiles>  (148) 
[H]OC1([H])C([H])=C2C(C([H])([H])[H])(C([H])([H])[H])C([H])=C([H])C(=O)C2(C([H])([H])[H])C2([H])C([H])(O[H])C([H])([H])C3(O[H])C([H])(C([H])([H])C4([H])C(=O)OC([H])(c5c([H])oc([H])c5[H])C([H])([H])C43C([H])([H])[H])C12[H]

$$$$
46:0:0
     RDKit          3D

 51 55  0  0  1  0  0  0  0  0999 V2000
    4.5818   -7.6452    2.2505 C   0  0  0  0  0  0  0  0  0  0  0  0
    4.4987   -6.1192    2.5098 C   0  0  2  0  0  0  0  0  0  0  0  0
    3.7880   -5.8296    3.8332 C   0  0  0  0  0  0  0  0  0  0  0  0
    3.4778   -6.7290    4.6151 O   0  0  0  0  0  0  0  0  0  0  0  0
    3.4800   -4.3756    4.1786 C   0  0  1  0  0  0  0  0  0  0  0  0
    4.2370   -3.9805    5.3097 O   0  0  0  0  0  0  0  0  0  0  0  0
    3.6117   -3.3467    3.0215 C   0  0  1  0  0  0  0  0  0  0  0  0
    2.7112   -2.1421    3.4169 C   0  0  0  0  0  0  0  0  0  0  0  0
    5.0178   -2.8634    2.6885 C   0  0  0  0  0  0  0  0  0  0  0  0
    4.9723   -2.5641    1.1645 C   0  0  1  0  0  0  0  0  0  0  0  0
    6.0428   -3.2993    0.2249 C   0  0  0  0  0  0  0  0  0  0  0  0
    6.8995   -2.3089   -0.6278 C   0  0  0  0  0  0  0  0  0  0  0  0
    7.1595   -4.0970    0.9575 C   0  0  0  0  0  0  0  0  0  0  0  0
    5.1911   -4.1856   -0.7345 C   0  0  1  0  0  0  0  0  0  0  0  0
    4.7359   -5.4685    0.0006 C   0  0  0  0  0  0  0  0  0  0  0  0
    3.8873   -5.3254    1.3128 C   0  0  2  0  0  0  0  0  0  0  0  0
    3.2346   -3.8961    1.6334 C   0  0  2  0  0  0  0  0  0  0  0  0
    3.4450   -2.6709    0.6403 C   0  0  1  0  0  0  0  0  0  0  0  0
    3.8083   -1.9927   -0.7680 C   0  0  0  0  0  0  0  0  0  0  0  0
    4.0002   -3.3767   -1.3335 C   0  0  1  0  0  0  0  0  0  0  0  0
    3.9708   -3.4552   -2.7420 O   0  0  0  0  0  0  0  0  0  0  0  0
    2.6551   -3.4083   -0.6208 C   0  0  1  0  0  0  0  0  0  0  0  0
    1.9856   -4.6554   -0.6012 O   0  0  0  0  0  0  0  0  0  0  0  0
    5.1127   -8.1545    3.0580 H   0  0  0  0  0  0  0  0  0  0  0  0
    5.1186   -7.8867    1.3341 H   0  0  0  0  0  0  0  0  0  0  0  0
    3.5923   -8.1003    2.1766 H   0  0  0  0  0  0  0  0  0  0  0  0
    5.5095   -5.7905    2.7122 H   0  0  0  0  0  0  0  0  0  0  0  0
    2.4360   -4.3933    4.4949 H   0  0  0  0  0  0  0  0  0  0  0  0
    3.9747   -3.1085    5.5646 H   0  0  0  0  0  0  0  0  0  0  0  0
    2.7921   -1.2991    2.7316 H   0  0  0  0  0  0  0  0  0  0  0  0
    2.9655   -1.7587    4.4056 H   0  0  0  0  0  0  0  0  0  0  0  0
    1.6605   -2.4290    3.4530 H   0  0  0  0  0  0  0  0  0  0  0  0
    5.2569   -1.9640    3.2577 H   0  0  0  0  0  0  0  0  0  0  0  0
    5.7595   -3.5963    2.9855 H   0  0  0  0  0  0  0  0  0  0  0  0
    5.2497   -1.5080    1.1683 H   0  0  0  0  0  0  0  0  0  0  0  0
    7.8509   -2.7437   -0.9360 H   0  0  0  0  0  0  0  0  0  0  0  0
    7.1373   -1.4029   -0.0704 H   0  0  0  0  0  0  0  0  0  0  0  0
    6.4335   -2.0297   -1.5731 H   0  0  0  0  0  0  0  0  0  0  0  0
    7.8198   -4.5952    0.2488 H   0  0  0  0  0  0  0  0  0  0  0  0
    6.8089   -4.8796    1.6081 H   0  0  0  0  0  0  0  0  0  0  0  0
    7.7788   -3.4497    1.5719 H   0  0  0  0  0  0  0  0  0  0  0  0
    5.8118   -4.5146   -1.5661 H   0  0  0  0  0  0  0  0  0  0  0  0
    4.1857   -6.0770   -0.7130 H   0  0  0  0  0  0  0  0  0  0  0  0
    5.6183   -6.0771    0.1885 H   0  0  0  0  0  0  0  0  0  0  0  0
    3.0205   -5.9565    1.1194 H   0  0  0  0  0  0  0  0  0  0  0  0
    2.1641   -4.0735    1.7410 H   0  0  0  0  0  0  0  0  0  0  0  0
    3.0748   -1.3134   -1.2328 H   0  0  0  0  0  0  0  0  0  0  0  0
    4.6609   -1.3276   -0.8065 H   0  0  0  0  0  0  0  0  0  0  0  0
    3.6299   -4.3204   -2.9523 H   0  0  0  0  0  0  0  0  0  0  0  0
    1.8447   -2.8124   -1.0750 H   0  0  0  0  0  0  0  0  0  0  0  0
    2.3373   -5.1528   -1.3379 H   0  0  0  0  0  0  0  0  0  0  0  0
  1  2  1  0
  1 24  1  0
  1 25  1  0
  1 26  1  0
  2 16  1  0
  2  3  1  0
  2 27  1  1
  3  4  2  0
  3  5  1  0
  5  6  1  0
  5  7  1  0
  5 28  1  1
  6 29  1  0
  7 17  1  0
  7  8  1  1
  7  9  1  0
  8 30  1  0
  8 31  1  0
  8 32  1  0
  9 10  1  0
  9 33  1  0
  9 34  1  0
 10 18  1  0
 10 11  1  0
 10 35  1  1
 11 12  1  0
 11 13  1  0
 11 14  1  0
 12 36  1  0
 12 37  1  0
 12 38  1  0
 13 39  1  0
 13 40  1  0
 13 41  1  0
 14 20  1  0
 14 15  1  0
 14 42  1  6
 15 16  1  0
 15 43  1  0
 15 44  1  0
 16 17  1  0
 16 45  1  6
 17 18  1  0
 17 46  1  1
 18 22  1  0
 18 19  1  1
 19 20  1  0
 19 47  1  0
 19 48  1  0
 20 21  1  6
 20 22  1  0
 21 49  1  0
 22 23  1  0
 22 50  1  6
 23 51  1  0
M  END
>  <i_m_ct_stereo_status>  (149) 
1

>  <s_m_source_file>  (149) 
/var/tmp/pbs.5076255.sched01/tmpgskxq70o/44i51uky9l.sdf

>  <i_m_source_file_index>  (149) 
33

>  <i_lp_mmshare_version>  (149) 
48012

>  <i_f3d_flags>  (149) 
2

>  <s_epik_input>  (149) 
W09IXVtDQEBIXTFbQ0BdKFtDSDJdMikoW09IXSlbQ0BASF0oQzMoW0NIM10pW0NIM10pW0NIMl1bQ0BASF0oW0NASF0oW0NIM10pQyg9TylbQ0BIXTRbT0hdKVtDQEhdNVtDQF00KFtDSDNdKVtDSDJdW0NAQEhdM0MxMjU=

>  <s_epik_cmdline>  (149) 
J2VwaWtfcHl0aG9uJywgJy1waHQnLCAnMi4wJywgJy1waCcsICc3LjAnLCAnLXRuJywgJzgnLCAnLW1hJywgJzIwMCcsICctaW1hZScsICc8aW5maWxlLm1hZT4nLCAnLW9tYWUnLCAnPG91dGZpbGUubWFlPic=

>  <r_lp_tautomer_probability>  (149) 
1

>  <r_epik_Ionization_Penalty>  (149) 
1.58897e-06

>  <r_epik_Ionization_Penalty_Charging>  (149) 
0

>  <r_epik_Ionization_Penalty_Neutral>  (149) 
1.58897e-06

>  <r_epik_State_Penalty>  (149) 
-0

>  <r_epik_Charging_Adjusted_Penalty>  (149) 
0

>  <i_epik_Tot_Q>  (149) 
0

>  <i_epik_Tot_abs_Q>  (149) 
0

>  <s_lp_Force_Field>  (149) 
OPLS3e

>  <r_lp_Energy>  (149) 
218.234

>  <b_lp_Chiralities_Consistent>  (149) 
0

>  <s_lp_Variant>  (149) 
46:0-1

>  <s_i_glide_gridfile>  (149) 
pfpi4k_grid

>  <i_i_glide_lignum>  (149) 
33

>  <i_i_glide_rotatable_bonds>  (149) 
3

>  <r_i_docking_score>  (149) 
-3.86524

>  <r_i_glide_ligand_efficiency>  (149) 
-0.168054

>  <r_i_glide_ligand_efficiency_sa>  (149) 
-0.477923

>  <r_i_glide_ligand_efficiency_ln>  (149) 
-0.934649

>  <r_i_glide_gscore>  (149) 
-3.86524

>  <r_i_glide_lipo>  (149) 
-0.349192

>  <r_i_glide_hbond>  (149) 
0

>  <r_i_glide_metal>  (149) 
-0

>  <r_i_glide_rewards>  (149) 
-1.22439

>  <r_i_glide_evdw>  (149) 
-18.5483

>  <r_i_glide_ecoul>  (149) 
-9.09496

>  <r_i_glide_erotb>  (149) 
0

>  <r_i_glide_esite>  (149) 
0

>  <r_i_glide_emodel>  (149) 
-34.714

>  <r_i_glide_energy>  (149) 
-27.6432

>  <r_i_glide_einternal>  (149) 
2.28354

>  <r_i_glide_intrahb_reward>  (149) 
-0

>  <i_i_glide_confnum>  (149) 
1

>  <i_i_glide_posenum>  (149) 
29

>  <r_i_glide_eff_state_penalty>  (149) 
0

>  <ligand_id>  (149) 
46

>  <original_smiles>  (149) 
CC1C(=O)C(O)C2(C)CC3C(C)(C)C4CC1C2C31CC4(O)C1O

>  <smiles>  (149) 
[H]OC1([H])C(=O)C([H])(C([H])([H])[H])C2([H])C([H])([H])C3([H])C4(O[H])C([H])([H])C5(C4([H])O[H])C2([H])C1(C([H])([H])[H])C([H])([H])C5([H])C3(C([H])([H])[H])C([H])([H])[H]

$$$$
46:0:1
     RDKit          3D

 51 55  0  0  1  0  0  0  0  0999 V2000
    2.8184   -5.5923    2.5560 C   0  0  0  0  0  0  0  0  0  0  0  0
    3.3985   -4.1647    2.3693 C   0  0  2  0  0  0  0  0  0  0  0  0
    2.7375   -3.1745    3.3170 C   0  0  0  0  0  0  0  0  0  0  0  0
    1.9537   -3.5503    4.2007 O   0  0  0  0  0  0  0  0  0  0  0  0
    3.0716   -1.6973    3.1751 C   0  0  1  0  0  0  0  0  0  0  0  0
    3.7792   -1.2419    4.3174 O   0  0  0  0  0  0  0  0  0  0  0  0
    3.8000   -1.2833    1.8670 C   0  0  1  0  0  0  0  0  0  0  0  0
    3.4881    0.2243    1.6684 C   0  0  0  0  0  0  0  0  0  0  0  0
    5.3047   -1.5261    1.7999 C   0  0  0  0  0  0  0  0  0  0  0  0
    5.5859   -1.7877    0.2955 C   0  0  1  0  0  0  0  0  0  0  0  0
    6.3161   -3.1642   -0.0954 C   0  0  0  0  0  0  0  0  0  0  0  0
    7.6257   -2.9504   -0.9234 C   0  0  0  0  0  0  0  0  0  0  0  0
    6.8550   -4.0017    1.0941 C   0  0  0  0  0  0  0  0  0  0  0  0
    5.2926   -3.9341   -0.9728 C   0  0  1  0  0  0  0  0  0  0  0  0
    4.2159   -4.5905   -0.0722 C   0  0  0  0  0  0  0  0  0  0  0  0
    3.3700   -3.6816    0.8856 C   0  0  2  0  0  0  0  0  0  0  0  0
    3.3951   -2.0951    0.6244 C   0  0  2  0  0  0  0  0  0  0  0  0
    4.2568   -1.5022   -0.5644 C   0  0  1  0  0  0  0  0  0  0  0  0
    5.0410   -1.5452   -1.9570 C   0  0  0  0  0  0  0  0  0  0  0  0
    4.6715   -3.0082   -2.0494 C   0  0  1  0  0  0  0  0  0  0  0  0
    4.7723   -3.5634   -3.3516 O   0  0  0  0  0  0  0  0  0  0  0  0
    3.3844   -2.2610   -1.7491 C   0  0  1  0  0  0  0  0  0  0  0  0
    2.2258   -3.0547   -1.5777 O   0  0  0  0  0  0  0  0  0  0  0  0
    2.9618   -5.9412    3.5798 H   0  0  0  0  0  0  0  0  0  0  0  0
    3.2993   -6.3249    1.9111 H   0  0  0  0  0  0  0  0  0  0  0  0
    1.7500   -5.6263    2.3441 H   0  0  0  0  0  0  0  0  0  0  0  0
    4.4176   -4.2015    2.7335 H   0  0  0  0  0  0  0  0  0  0  0  0
    2.1030   -1.1975    3.1911 H   0  0  0  0  0  0  0  0  0  0  0  0
    3.8955   -0.3144    4.2548 H   0  0  0  0  0  0  0  0  0  0  0  0
    4.0284    0.6698    0.8365 H   0  0  0  0  0  0  0  0  0  0  0  0
    3.7615    0.8094    2.5471 H   0  0  0  0  0  0  0  0  0  0  0  0
    2.4249    0.3990    1.4948 H   0  0  0  0  0  0  0  0  0  0  0  0
    5.8486   -0.6446    2.1485 H   0  0  0  0  0  0  0  0  0  0  0  0
    5.5949   -2.3269    2.4695 H   0  0  0  0  0  0  0  0  0  0  0  0
    6.3052   -0.9944    0.0894 H   0  0  0  0  0  0  0  0  0  0  0  0
    8.3079   -3.8017   -0.8399 H   0  0  0  0  0  0  0  0  0  0  0  0
    8.1919   -2.0798   -0.5903 H   0  0  0  0  0  0  0  0  0  0  0  0
    7.4659   -2.8730   -2.0004 H   0  0  0  0  0  0  0  0  0  0  0  0
    7.3018   -4.9381    0.7483 H   0  0  0  0  0  0  0  0  0  0  0  0
    6.1118   -4.3137    1.8114 H   0  0  0  0  0  0  0  0  0  0  0  0
    7.6203   -3.4640    1.6502 H   0  0  0  0  0  0  0  0  0  0  0  0
    5.8157   -4.7455   -1.4613 H   0  0  0  0  0  0  0  0  0  0  0  0
    3.5264   -5.1278   -0.7180 H   0  0  0  0  0  0  0  0  0  0  0  0
    4.6914   -5.3895    0.4915 H   0  0  0  0  0  0  0  0  0  0  0  0
    2.3433   -3.9527    0.6395 H   0  0  0  0  0  0  0  0  0  0  0  0
    2.3545   -1.8075    0.4943 H   0  0  0  0  0  0  0  0  0  0  0  0
    4.7631   -0.8559   -2.7645 H   0  0  0  0  0  0  0  0  0  0  0  0
    6.0989   -1.3420   -1.9347 H   0  0  0  0  0  0  0  0  0  0  0  0
    4.2327   -4.3408   -3.3283 H   0  0  0  0  0  0  0  0  0  0  0  0
    2.9823   -1.5806   -2.5238 H   0  0  0  0  0  0  0  0  0  0  0  0
    1.5389   -2.4027   -1.4363 H   0  0  0  0  0  0  0  0  0  0  0  0
  1  2  1  0
  1 24  1  0
  1 25  1  0
  1 26  1  0
  2 16  1  0
  2  3  1  0
  2 27  1  1
  3  4  2  0
  3  5  1  0
  5  6  1  0
  5  7  1  0
  5 28  1  6
  6 29  1  0
  7 17  1  0
  7  8  1  6
  7  9  1  0
  8 30  1  0
  8 31  1  0
  8 32  1  0
  9 10  1  0
  9 33  1  0
  9 34  1  0
 10 18  1  0
 10 11  1  0
 10 35  1  6
 11 12  1  0
 11 13  1  0
 11 14  1  0
 12 36  1  0
 12 37  1  0
 12 38  1  0
 13 39  1  0
 13 40  1  0
 13 41  1  0
 14 20  1  0
 14 15  1  0
 14 42  1  6
 15 16  1  0
 15 43  1  0
 15 44  1  0
 16 17  1  0
 16 45  1  6
 17 18  1  0
 17 46  1  6
 18 22  1  0
 18 19  1  6
 19 20  1  0
 19 47  1  0
 19 48  1  0
 20 21  1  6
 20 22  1  0
 21 49  1  0
 22 23  1  0
 22 50  1  6
 23 51  1  0
M  END
>  <i_m_ct_stereo_status>  (150) 
1

>  <s_m_source_file>  (150) 
/var/tmp/pbs.5076255.sched01/tmpgskxq70o/44i51uky9l.sdf

>  <i_m_source_file_index>  (150) 
33

>  <i_lp_mmshare_version>  (150) 
48012

>  <i_f3d_flags>  (150) 
2

>  <s_epik_input>  (150) 
W09IXVtDQEBIXTFbQ0BdKFtDSDJdMikoW09IXSlbQ0BASF0oQzMoW0NIM10pW0NIM10pW0NIMl1bQ0BASF0oW0NASF0oW0NIM10pQyg9TylbQ0BIXTRbT0hdKVtDQEhdNVtDQF00KFtDSDNdKVtDSDJdW0NAQEhdM0MxMjU=

>  <s_epik_cmdline>  (150) 
J2VwaWtfcHl0aG9uJywgJy1waHQnLCAnMi4wJywgJy1waCcsICc3LjAnLCAnLXRuJywgJzgnLCAnLW1hJywgJzIwMCcsICctaW1hZScsICc8aW5maWxlLm1hZT4nLCAnLW9tYWUnLCAnPG91dGZpbGUubWFlPic=

>  <r_lp_tautomer_probability>  (150) 
1

>  <r_epik_Ionization_Penalty>  (150) 
1.58897e-06

>  <r_epik_Ionization_Penalty_Charging>  (150) 
0

>  <r_epik_Ionization_Penalty_Neutral>  (150) 
1.58897e-06

>  <r_epik_State_Penalty>  (150) 
-0

>  <r_epik_Charging_Adjusted_Penalty>  (150) 
0

>  <i_epik_Tot_Q>  (150) 
0

>  <i_epik_Tot_abs_Q>  (150) 
0

>  <s_lp_Force_Field>  (150) 
OPLS3e

>  <r_lp_Energy>  (150) 
218.234

>  <b_lp_Chiralities_Consistent>  (150) 
0

>  <s_lp_Variant>  (150) 
46:0-1

>  <s_i_glide_gridfile>  (150) 
pfpi4k_grid

>  <i_i_glide_lignum>  (150) 
33

>  <i_i_glide_rotatable_bonds>  (150) 
3

>  <r_i_docking_score>  (150) 
-3.80037

>  <r_i_glide_ligand_efficiency>  (150) 
-0.165234

>  <r_i_glide_ligand_efficiency_sa>  (150) 
-0.469902

>  <r_i_glide_ligand_efficiency_ln>  (150) 
-0.918964

>  <r_i_glide_gscore>  (150) 
-3.80037

>  <r_i_glide_lipo>  (150) 
-0.435543

>  <r_i_glide_hbond>  (150) 
0

>  <r_i_glide_metal>  (150) 
-0

>  <r_i_glide_rewards>  (150) 
-1.22542

>  <r_i_glide_evdw>  (150) 
-26.9436

>  <r_i_glide_ecoul>  (150) 
-5.28153

>  <r_i_glide_erotb>  (150) 
0

>  <r_i_glide_esite>  (150) 
0

>  <r_i_glide_emodel>  (150) 
-39.4462

>  <r_i_glide_energy>  (150) 
-32.2252

>  <r_i_glide_einternal>  (150) 
1.63824

>  <r_i_glide_intrahb_reward>  (150) 
-0

>  <i_i_glide_confnum>  (150) 
2

>  <i_i_glide_posenum>  (150) 
30

>  <r_i_glide_eff_state_penalty>  (150) 
0

>  <ligand_id>  (150) 
46

>  <original_smiles>  (150) 
CC1C(=O)C(O)C2(C)CC3C(C)(C)C4CC1C2C31CC4(O)C1O

>  <smiles>  (150) 
[H]OC1([H])C(=O)C([H])(C([H])([H])[H])C2([H])C([H])([H])C3([H])C4(O[H])C([H])([H])C5(C4([H])O[H])C2([H])C1(C([H])([H])[H])C([H])([H])C5([H])C3(C([H])([H])[H])C([H])([H])[H]

$$$$
46:0:2
     RDKit          3D

 51 55  0  0  1  0  0  0  0  0999 V2000
    2.9006   -5.6141    2.6219 C   0  0  0  0  0  0  0  0  0  0  0  0
    3.4775   -4.1855    2.4299 C   0  0  2  0  0  0  0  0  0  0  0  0
    2.8393   -3.1998    3.3999 C   0  0  0  0  0  0  0  0  0  0  0  0
    2.0782   -3.5799    4.2993 O   0  0  0  0  0  0  0  0  0  0  0  0
    3.1738   -1.7230    3.2547 C   0  0  1  0  0  0  0  0  0  0  0  0
    3.8941   -1.2632    4.3871 O   0  0  0  0  0  0  0  0  0  0  0  0
    3.8724   -1.3031    1.9336 C   0  0  1  0  0  0  0  0  0  0  0  0
    3.5573    0.2023    1.7441 C   0  0  0  0  0  0  0  0  0  0  0  0
    5.3754   -1.5481    1.8358 C   0  0  0  0  0  0  0  0  0  0  0  0
    5.6238   -1.8016    0.3244 C   0  0  1  0  0  0  0  0  0  0  0  0
    6.3440   -3.1766   -0.0888 C   0  0  0  0  0  0  0  0  0  0  0  0
    7.6383   -2.9596   -0.9402 C   0  0  0  0  0  0  0  0  0  0  0  0
    6.9096   -4.0210    1.0860 C   0  0  0  0  0  0  0  0  0  0  0  0
    5.3018   -3.9399   -0.9476 C   0  0  1  0  0  0  0  0  0  0  0  0
    4.2432   -4.6016   -0.0332 C   0  0  0  0  0  0  0  0  0  0  0  0
    3.4168   -3.6951    0.9497 C   0  0  2  0  0  0  0  0  0  0  0  0
    3.4350   -2.1071    0.6962 C   0  0  2  0  0  0  0  0  0  0  0  0
    4.2759   -1.5109   -0.5071 C   0  0  1  0  0  0  0  0  0  0  0  0
    5.0340   -1.5479   -1.9152 C   0  0  0  0  0  0  0  0  0  0  0  0
    4.6591   -3.0084   -2.0061 C   0  0  1  0  0  0  0  0  0  0  0  0
    4.7280   -3.5567   -3.3122 O   0  0  0  0  0  0  0  0  0  0  0  0
    3.3794   -2.2667   -1.6747 C   0  0  1  0  0  0  0  0  0  0  0  0
    2.2200   -3.0591   -1.4822 O   0  0  0  0  0  0  0  0  0  0  0  0
    3.0640   -5.9686    3.6405 H   0  0  0  0  0  0  0  0  0  0  0  0
    3.3682   -6.3447    1.9637 H   0  0  0  0  0  0  0  0  0  0  0  0
    1.8280   -5.6466    2.4312 H   0  0  0  0  0  0  0  0  0  0  0  0
    4.5045   -4.2275    2.7717 H   0  0  0  0  0  0  0  0  0  0  0  0
    2.2069   -1.2224    3.2930 H   0  0  0  0  0  0  0  0  0  0  0  0
    4.7315   -1.6866    4.4106 H   0  0  0  0  0  0  0  0  0  0  0  0
    4.0805    0.6542    0.9039 H   0  0  0  0  0  0  0  0  0  0  0  0
    3.8423    0.7767    2.6272 H   0  0  0  0  0  0  0  0  0  0  0  0
    2.4910    0.3784    1.5970 H   0  0  0  0  0  0  0  0  0  0  0  0
    5.9261   -0.6664    2.1770 H   0  0  0  0  0  0  0  0  0  0  0  0
    5.6815   -2.3527    2.4920 H   0  0  0  0  0  0  0  0  0  0  0  0
    6.3411   -1.0083    0.1094 H   0  0  0  0  0  0  0  0  0  0  0  0
    8.3226   -3.8115   -0.8759 H   0  0  0  0  0  0  0  0  0  0  0  0
    8.2124   -2.0909   -0.6139 H   0  0  0  0  0  0  0  0  0  0  0  0
    7.4577   -2.8752   -2.0143 H   0  0  0  0  0  0  0  0  0  0  0  0
    7.3481   -4.9560    0.7253 H   0  0  0  0  0  0  0  0  0  0  0  0
    6.1805   -4.3354    1.8168 H   0  0  0  0  0  0  0  0  0  0  0  0
    7.6875   -3.4856    1.6269 H   0  0  0  0  0  0  0  0  0  0  0  0
    5.8112   -4.7522   -1.4518 H   0  0  0  0  0  0  0  0  0  0  0  0
    3.5408   -5.1340   -0.6720 H   0  0  0  0  0  0  0  0  0  0  0  0
    4.7303   -5.4027    0.5219 H   0  0  0  0  0  0  0  0  0  0  0  0
    2.3847   -3.9659    0.7240 H   0  0  0  0  0  0  0  0  0  0  0  0
    2.3937   -1.8135    0.5893 H   0  0  0  0  0  0  0  0  0  0  0  0
    4.7424   -0.8514   -2.7119 H   0  0  0  0  0  0  0  0  0  0  0  0
    6.0940   -1.3431   -1.9177 H   0  0  0  0  0  0  0  0  0  0  0  0
    4.1603   -4.3161   -3.2908 H   0  0  0  0  0  0  0  0  0  0  0  0
    2.9599   -1.5810   -2.4359 H   0  0  0  0  0  0  0  0  0  0  0  0
    1.5362   -2.3938   -1.3466 H   0  0  0  0  0  0  0  0  0  0  0  0
  1  2  1  0
  1 24  1  0
  1 25  1  0
  1 26  1  0
  2 16  1  0
  2  3  1  0
  2 27  1  1
  3  4  2  0
  3  5  1  0
  5  6  1  0
  5  7  1  0
  5 28  1  6
  6 29  1  0
  7 17  1  0
  7  8  1  6
  7  9  1  0
  8 30  1  0
  8 31  1  0
  8 32  1  0
  9 10  1  0
  9 33  1  0
  9 34  1  0
 10 18  1  0
 10 11  1  0
 10 35  1  6
 11 12  1  0
 11 13  1  0
 11 14  1  0
 12 36  1  0
 12 37  1  0
 12 38  1  0
 13 39  1  0
 13 40  1  0
 13 41  1  0
 14 20  1  0
 14 15  1  0
 14 42  1  6
 15 16  1  0
 15 43  1  0
 15 44  1  0
 16 17  1  0
 16 45  1  6
 17 18  1  0
 17 46  1  6
 18 22  1  0
 18 19  1  6
 19 20  1  0
 19 47  1  0
 19 48  1  0
 20 21  1  6
 20 22  1  0
 21 49  1  0
 22 23  1  0
 22 50  1  6
 23 51  1  0
M  END
>  <i_m_ct_stereo_status>  (151) 
1

>  <s_m_source_file>  (151) 
/var/tmp/pbs.5076255.sched01/tmpgskxq70o/44i51uky9l.sdf

>  <i_m_source_file_index>  (151) 
33

>  <i_lp_mmshare_version>  (151) 
48012

>  <i_f3d_flags>  (151) 
2

>  <s_epik_input>  (151) 
W09IXVtDQEBIXTFbQ0BdKFtDSDJdMikoW09IXSlbQ0BASF0oQzMoW0NIM10pW0NIM10pW0NIMl1bQ0BASF0oW0NASF0oW0NIM10pQyg9TylbQ0BIXTRbT0hdKVtDQEhdNVtDQF00KFtDSDNdKVtDSDJdW0NAQEhdM0MxMjU=

>  <s_epik_cmdline>  (151) 
J2VwaWtfcHl0aG9uJywgJy1waHQnLCAnMi4wJywgJy1waCcsICc3LjAnLCAnLXRuJywgJzgnLCAnLW1hJywgJzIwMCcsICctaW1hZScsICc8aW5maWxlLm1hZT4nLCAnLW9tYWUnLCAnPG91dGZpbGUubWFlPic=

>  <r_lp_tautomer_probability>  (151) 
1

>  <r_epik_Ionization_Penalty>  (151) 
1.58897e-06

>  <r_epik_Ionization_Penalty_Charging>  (151) 
0

>  <r_epik_Ionization_Penalty_Neutral>  (151) 
1.58897e-06

>  <r_epik_State_Penalty>  (151) 
-0

>  <r_epik_Charging_Adjusted_Penalty>  (151) 
0

>  <i_epik_Tot_Q>  (151) 
0

>  <i_epik_Tot_abs_Q>  (151) 
0

>  <s_lp_Force_Field>  (151) 
OPLS3e

>  <r_lp_Energy>  (151) 
218.234

>  <b_lp_Chiralities_Consistent>  (151) 
0

>  <s_lp_Variant>  (151) 
46:0-1

>  <s_i_glide_gridfile>  (151) 
pfpi4k_grid

>  <i_i_glide_lignum>  (151) 
33

>  <i_i_glide_rotatable_bonds>  (151) 
3

>  <r_i_docking_score>  (151) 
-3.79495

>  <r_i_glide_ligand_efficiency>  (151) 
-0.164998

>  <r_i_glide_ligand_efficiency_sa>  (151) 
-0.469232

>  <r_i_glide_ligand_efficiency_ln>  (151) 
-0.917654

>  <r_i_glide_gscore>  (151) 
-3.79495

>  <r_i_glide_lipo>  (151) 
-0.439382

>  <r_i_glide_hbond>  (151) 
0

>  <r_i_glide_metal>  (151) 
-0

>  <r_i_glide_rewards>  (151) 
-1.22569

>  <r_i_glide_evdw>  (151) 
-26.594

>  <r_i_glide_ecoul>  (151) 
-5.33454

>  <r_i_glide_erotb>  (151) 
0

>  <r_i_glide_esite>  (151) 
0

>  <r_i_glide_emodel>  (151) 
-38.5047

>  <r_i_glide_energy>  (151) 
-31.9285

>  <r_i_glide_einternal>  (151) 
2.85225

>  <r_i_glide_intrahb_reward>  (151) 
-0

>  <i_i_glide_confnum>  (151) 
2

>  <i_i_glide_posenum>  (151) 
1

>  <r_i_glide_eff_state_penalty>  (151) 
0

>  <ligand_id>  (151) 
46

>  <original_smiles>  (151) 
CC1C(=O)C(O)C2(C)CC3C(C)(C)C4CC1C2C31CC4(O)C1O

>  <smiles>  (151) 
[H]OC1([H])C(=O)C([H])(C([H])([H])[H])C2([H])C([H])([H])C3([H])C4(O[H])C([H])([H])C5(C4([H])O[H])C2([H])C1(C([H])([H])[H])C([H])([H])C5([H])C3(C([H])([H])[H])C([H])([H])[H]

$$$$
47:0:0
     RDKit          3D

 24 26  0  0  1  0  0  0  0  0999 V2000
    3.8157   -1.9565   -4.3335 O   0  0  0  0  0  0  0  0  0  0  0  0
    3.8515   -2.1911   -3.1320 C   0  0  0  0  0  0  0  0  0  0  0  0
    4.3232   -1.1961   -2.0866 C   0  0  0  0  0  0  0  0  0  0  0  0
    3.9873   -1.8687   -0.7457 C   0  0  0  0  0  0  0  0  0  0  0  0
    3.6163   -3.3211   -1.1006 C   0  0  1  0  0  0  0  0  0  0  0  0
    3.5049   -3.3380   -2.5466 N   0  0  0  0  0  0  0  0  0  0  0  0
    4.6062   -4.2750   -0.6796 N   0  0  0  0  0  0  0  0  0  0  0  0
    3.9547   -5.1270    0.1736 C   0  0  0  0  0  0  0  0  0  0  0  0
    4.6454   -6.2214    0.8530 C   0  0  0  0  0  0  0  0  0  0  0  0
    5.9481   -6.4055    1.2625 C   0  0  0  0  0  0  0  0  0  0  0  0
    5.9819   -7.6778    1.9124 C   0  0  0  0  0  0  0  0  0  0  0  0
    4.7062   -8.1608    1.8670 C   0  0  0  0  0  0  0  0  0  0  0  0
    3.8826   -7.2857    1.2405 O   0  0  0  0  0  0  0  0  0  0  0  0
    2.6868   -4.8795    0.3095 N   0  0  0  0  0  0  0  0  0  0  0  0
    2.3964   -3.7313   -0.4762 O   0  0  0  0  0  0  0  0  0  0  0  0
    5.3950   -1.0429   -2.2047 H   0  0  0  0  0  0  0  0  0  0  0  0
    3.8103   -0.2493   -2.2076 H   0  0  0  0  0  0  0  0  0  0  0  0
    4.8349   -1.8173   -0.0577 H   0  0  0  0  0  0  0  0  0  0  0  0
    3.1493   -1.3527   -0.2605 H   0  0  0  0  0  0  0  0  0  0  0  0
    3.1148   -4.1415   -3.0197 H   0  0  0  0  0  0  0  0  0  0  0  0
    5.6017   -4.1096   -0.8292 H   0  0  0  0  0  0  0  0  0  0  0  0
    6.7678   -5.7095    1.1204 H   0  0  0  0  0  0  0  0  0  0  0  0
    6.8248   -8.1810    2.3601 H   0  0  0  0  0  0  0  0  0  0  0  0
    4.2291   -9.0661    2.2137 H   0  0  0  0  0  0  0  0  0  0  0  0
  1  2  2  0
  2  6  1  0
  2  3  1  0
  3  4  1  0
  3 16  1  0
  3 17  1  0
  4  5  1  0
  4 18  1  0
  4 19  1  0
  5 15  1  1
  5  6  1  0
  5  7  1  0
  6 20  1  0
  7  8  1  0
  7 21  1  0
  8  9  1  0
  8 14  2  0
  9 13  1  0
  9 10  2  0
 10 11  1  0
 10 22  1  0
 11 12  2  0
 11 23  1  0
 12 13  1  0
 12 24  1  0
 14 15  1  0
M  END
>  <i_m_ct_stereo_status>  (152) 
1

>  <s_m_source_file>  (152) 
/var/tmp/pbs.5076255.sched01/tmpgskxq70o/44i51uky9l.sdf

>  <i_m_source_file_index>  (152) 
34

>  <i_lp_mmshare_version>  (152) 
48012

>  <i_f3d_flags>  (152) 
0

>  <s_epik_input>  (152) 
Tz1DKFtOSF0xKVtDSDJdW0NIMl1bQ0BdMTJbTkhdQyg9Tk8yKWMzW2NIXVtjSF1bY0hdbzM=

>  <s_epik_cmdline>  (152) 
J2VwaWtfcHl0aG9uJywgJy1waHQnLCAnMi4wJywgJy1waCcsICc3LjAnLCAnLXRuJywgJzgnLCAnLW1hJywgJzIwMCcsICctaW1hZScsICc8aW5maWxlLm1hZT4nLCAnLW9tYWUnLCAnPG91dGZpbGUubWFlPic=

>  <r_lp_tautomer_probability>  (152) 
1

>  <r_epik_Ionization_Penalty>  (152) 
0.000160135

>  <r_epik_Ionization_Penalty_Charging>  (152) 
0

>  <r_epik_Ionization_Penalty_Neutral>  (152) 
0.000160135

>  <r_epik_State_Penalty>  (152) 
-0

>  <r_epik_Charging_Adjusted_Penalty>  (152) 
0

>  <i_epik_Tot_Q>  (152) 
0

>  <i_epik_Tot_abs_Q>  (152) 
0

>  <s_epik_Chemistry_Notes>  (152) 
This compound has an imine and may undergo hydrolysis.

>  <s_lp_Force_Field>  (152) 
OPLS3e

>  <r_lp_Energy>  (152) 
-14.5698

>  <b_lp_Chiralities_Consistent>  (152) 
1

>  <s_lp_Variant>  (152) 
47:0-1

>  <s_i_glide_gridfile>  (152) 
pfpi4k_grid

>  <i_i_glide_lignum>  (152) 
34

>  <i_i_glide_rotatable_bonds>  (152) 
1

>  <r_i_docking_score>  (152) 
-4.5339

>  <r_i_glide_ligand_efficiency>  (152) 
-0.30226

>  <r_i_glide_ligand_efficiency_sa>  (152) 
-0.745436

>  <r_i_glide_ligand_efficiency_ln>  (152) 
-1.22272

>  <r_i_glide_gscore>  (152) 
-4.5339

>  <r_i_glide_lipo>  (152) 
-0.279322

>  <r_i_glide_hbond>  (152) 
-0.533551

>  <r_i_glide_metal>  (152) 
-0

>  <r_i_glide_rewards>  (152) 
-2.22063

>  <r_i_glide_evdw>  (152) 
-21.3011

>  <r_i_glide_ecoul>  (152) 
-4.51022

>  <r_i_glide_erotb>  (152) 
0.38495

>  <r_i_glide_esite>  (152) 
-0.143753

>  <r_i_glide_emodel>  (152) 
-34.5137

>  <r_i_glide_energy>  (152) 
-25.8113

>  <r_i_glide_einternal>  (152) 
0.291682

>  <r_i_glide_intrahb_reward>  (152) 
-0

>  <i_i_glide_confnum>  (152) 
1

>  <i_i_glide_posenum>  (152) 
35

>  <r_i_glide_eff_state_penalty>  (152) 
0

>  <ligand_id>  (152) 
47

>  <original_smiles>  (152) 
O=C1CCC2(N1)NC(c1ccco1)=NO2

>  <smiles>  (152) 
[H]c1oc(C2=NOC3(N([H])C(=O)C([H])([H])C3([H])[H])N2[H])c([H])c1[H]

$$$$
47:0:1
     RDKit          3D

 24 26  0  0  1  0  0  0  0  0999 V2000
    3.7096   -1.6188   -3.3943 O   0  0  0  0  0  0  0  0  0  0  0  0
    3.9580   -2.3726   -2.4552 C   0  0  0  0  0  0  0  0  0  0  0  0
    5.1762   -3.2832   -2.4128 C   0  0  0  0  0  0  0  0  0  0  0  0
    5.1721   -3.8353   -0.9778 C   0  0  0  0  0  0  0  0  0  0  0  0
    3.8052   -3.4241   -0.3884 C   0  0  1  0  0  0  0  0  0  0  0  0
    3.2362   -2.4967   -1.3435 N   0  0  0  0  0  0  0  0  0  0  0  0
    2.9053   -4.5294   -0.1918 N   0  0  0  0  0  0  0  0  0  0  0  0
    2.6598   -4.5854    1.1341 C   0  0  0  0  0  0  0  0  0  0  0  0
    1.8223   -5.6298    1.7571 C   0  0  0  0  0  0  0  0  0  0  0  0
    1.1561   -6.6988    1.2405 C   0  0  0  0  0  0  0  0  0  0  0  0
    0.4924   -7.3295    2.3521 C   0  0  0  0  0  0  0  0  0  0  0  0
    0.8088   -6.5784    3.4401 C   0  0  0  0  0  0  0  0  0  0  0  0
    1.6091   -5.5362    3.0981 O   0  0  0  0  0  0  0  0  0  0  0  0
    3.2100   -3.6108    1.8278 N   0  0  0  0  0  0  0  0  0  0  0  0
    3.9590   -2.8379    0.9011 O   0  0  0  0  0  0  0  0  0  0  0  0
    5.0335   -4.0817   -3.1408 H   0  0  0  0  0  0  0  0  0  0  0  0
    6.0932   -2.7402   -2.6466 H   0  0  0  0  0  0  0  0  0  0  0  0
    5.3172   -4.9181   -0.9749 H   0  0  0  0  0  0  0  0  0  0  0  0
    6.0032   -3.4060   -0.4049 H   0  0  0  0  0  0  0  0  0  0  0  0
    2.4073   -1.9463   -1.1242 H   0  0  0  0  0  0  0  0  0  0  0  0
    2.8491   -5.2610   -0.9251 H   0  0  0  0  0  0  0  0  0  0  0  0
    1.1292   -7.0060    0.2028 H   0  0  0  0  0  0  0  0  0  0  0  0
   -0.1155   -8.2165    2.3417 H   0  0  0  0  0  0  0  0  0  0  0  0
    0.5695   -6.6504    4.4959 H   0  0  0  0  0  0  0  0  0  0  0  0
  1  2  2  0
  2  6  1  0
  2  3  1  0
  3  4  1  0
  3 16  1  0
  3 17  1  0
  4  5  1  0
  4 18  1  0
  4 19  1  0
  5 15  1  1
  5  6  1  0
  5  7  1  0
  6 20  1  0
  7  8  1  0
  7 21  1  0
  8  9  1  0
  8 14  2  0
  9 13  1  0
  9 10  2  0
 10 11  1  0
 10 22  1  0
 11 12  2  0
 11 23  1  0
 12 13  1  0
 12 24  1  0
 14 15  1  0
M  END
>  <i_m_ct_stereo_status>  (153) 
1

>  <s_m_source_file>  (153) 
/var/tmp/pbs.5076255.sched01/tmpgskxq70o/44i51uky9l.sdf

>  <i_m_source_file_index>  (153) 
34

>  <i_lp_mmshare_version>  (153) 
48012

>  <i_f3d_flags>  (153) 
0

>  <s_epik_input>  (153) 
Tz1DKFtOSF0xKVtDSDJdW0NIMl1bQ0BdMTJbTkhdQyg9Tk8yKWMzW2NIXVtjSF1bY0hdbzM=

>  <s_epik_cmdline>  (153) 
J2VwaWtfcHl0aG9uJywgJy1waHQnLCAnMi4wJywgJy1waCcsICc3LjAnLCAnLXRuJywgJzgnLCAnLW1hJywgJzIwMCcsICctaW1hZScsICc8aW5maWxlLm1hZT4nLCAnLW9tYWUnLCAnPG91dGZpbGUubWFlPic=

>  <r_lp_tautomer_probability>  (153) 
1

>  <r_epik_Ionization_Penalty>  (153) 
0.000160135

>  <r_epik_Ionization_Penalty_Charging>  (153) 
0

>  <r_epik_Ionization_Penalty_Neutral>  (153) 
0.000160135

>  <r_epik_State_Penalty>  (153) 
-0

>  <r_epik_Charging_Adjusted_Penalty>  (153) 
0

>  <i_epik_Tot_Q>  (153) 
0

>  <i_epik_Tot_abs_Q>  (153) 
0

>  <s_epik_Chemistry_Notes>  (153) 
This compound has an imine and may undergo hydrolysis.

>  <s_lp_Force_Field>  (153) 
OPLS3e

>  <r_lp_Energy>  (153) 
-14.5698

>  <b_lp_Chiralities_Consistent>  (153) 
1

>  <s_lp_Variant>  (153) 
47:0-1

>  <s_i_glide_gridfile>  (153) 
pfpi4k_grid

>  <i_i_glide_lignum>  (153) 
34

>  <i_i_glide_rotatable_bonds>  (153) 
1

>  <r_i_docking_score>  (153) 
-4.41795

>  <r_i_glide_ligand_efficiency>  (153) 
-0.29453

>  <r_i_glide_ligand_efficiency_sa>  (153) 
-0.726374

>  <r_i_glide_ligand_efficiency_ln>  (153) 
-1.19145

>  <r_i_glide_gscore>  (153) 
-4.41795

>  <r_i_glide_lipo>  (153) 
-0.225961

>  <r_i_glide_hbond>  (153) 
-0.456

>  <r_i_glide_metal>  (153) 
-0

>  <r_i_glide_rewards>  (153) 
-2.10828

>  <r_i_glide_evdw>  (153) 
-19.8446

>  <r_i_glide_ecoul>  (153) 
-5.99521

>  <r_i_glide_erotb>  (153) 
0.38495

>  <r_i_glide_esite>  (153) 
-0.121153

>  <r_i_glide_emodel>  (153) 
-34.4403

>  <r_i_glide_energy>  (153) 
-25.8398

>  <r_i_glide_einternal>  (153) 
0.0125216

>  <r_i_glide_intrahb_reward>  (153) 
-0

>  <i_i_glide_confnum>  (153) 
1

>  <i_i_glide_posenum>  (153) 
4

>  <r_i_glide_eff_state_penalty>  (153) 
0

>  <ligand_id>  (153) 
47

>  <original_smiles>  (153) 
O=C1CCC2(N1)NC(c1ccco1)=NO2

>  <smiles>  (153) 
[H]c1oc(C2=NOC3(N([H])C(=O)C([H])([H])C3([H])[H])N2[H])c([H])c1[H]

$$$$
47:0:2
     RDKit          3D

 24 26  0  0  1  0  0  0  0  0999 V2000
    5.4787   -1.0786   -1.5234 O   0  0  0  0  0  0  0  0  0  0  0  0
    4.7536   -1.2655   -0.5493 C   0  0  0  0  0  0  0  0  0  0  0  0
    4.1156   -2.6063   -0.2307 C   0  0  0  0  0  0  0  0  0  0  0  0
    3.4961   -2.3884    1.1578 C   0  0  0  0  0  0  0  0  0  0  0  0
    3.5703   -0.8720    1.4102 C   0  0  1  0  0  0  0  0  0  0  0  0
    4.4200   -0.3521    0.3592 N   0  0  0  0  0  0  0  0  0  0  0  0
    2.2833   -0.2458    1.3535 N   0  0  0  0  0  0  0  0  0  0  0  0
    2.1158    0.3371    2.5880 C   0  0  0  0  0  0  0  0  0  0  0  0
    0.8963    1.0413    2.9946 C   0  0  0  0  0  0  0  0  0  0  0  0
   -0.2605    1.3315    2.3223 C   0  0  0  0  0  0  0  0  0  0  0  0
   -1.0875    2.0475    3.2412 C   0  0  0  0  0  0  0  0  0  0  0  0
   -0.3732    2.1345    4.3999 C   0  0  0  0  0  0  0  0  0  0  0  0
    0.8328    1.5239    4.2691 O   0  0  0  0  0  0  0  0  0  0  0  0
    3.1370    0.1957    3.3786 N   0  0  0  0  0  0  0  0  0  0  0  0
    4.1030   -0.5801    2.6960 O   0  0  0  0  0  0  0  0  0  0  0  0
    3.3512   -2.8162   -0.9782 H   0  0  0  0  0  0  0  0  0  0  0  0
    4.8565   -3.4050   -0.2333 H   0  0  0  0  0  0  0  0  0  0  0  0
    2.4689   -2.7529    1.1931 H   0  0  0  0  0  0  0  0  0  0  0  0
    4.0597   -2.9404    1.9152 H   0  0  0  0  0  0  0  0  0  0  0  0
    4.7525    0.6045    0.3510 H   0  0  0  0  0  0  0  0  0  0  0  0
    1.6145   -0.4976    0.6013 H   0  0  0  0  0  0  0  0  0  0  0  0
   -0.4811    1.0801    1.2928 H   0  0  0  0  0  0  0  0  0  0  0  0
   -2.0733    2.4477    3.0657 H   0  0  0  0  0  0  0  0  0  0  0  0
   -0.5677    2.5786    5.3716 H   0  0  0  0  0  0  0  0  0  0  0  0
  1  2  2  0
  2  6  1  0
  2  3  1  0
  3  4  1  0
  3 16  1  0
  3 17  1  0
  4  5  1  0
  4 18  1  0
  4 19  1  0
  5 15  1  1
  5  6  1  0
  5  7  1  0
  6 20  1  0
  7  8  1  0
  7 21  1  0
  8  9  1  0
  8 14  2  0
  9 13  1  0
  9 10  2  0
 10 11  1  0
 10 22  1  0
 11 12  2  0
 11 23  1  0
 12 13  1  0
 12 24  1  0
 14 15  1  0
M  END
>  <i_m_ct_stereo_status>  (154) 
1

>  <s_m_source_file>  (154) 
/var/tmp/pbs.5076255.sched01/tmpgskxq70o/44i51uky9l.sdf

>  <i_m_source_file_index>  (154) 
34

>  <i_lp_mmshare_version>  (154) 
48012

>  <i_f3d_flags>  (154) 
0

>  <s_epik_input>  (154) 
Tz1DKFtOSF0xKVtDSDJdW0NIMl1bQ0BdMTJbTkhdQyg9Tk8yKWMzW2NIXVtjSF1bY0hdbzM=

>  <s_epik_cmdline>  (154) 
J2VwaWtfcHl0aG9uJywgJy1waHQnLCAnMi4wJywgJy1waCcsICc3LjAnLCAnLXRuJywgJzgnLCAnLW1hJywgJzIwMCcsICctaW1hZScsICc8aW5maWxlLm1hZT4nLCAnLW9tYWUnLCAnPG91dGZpbGUubWFlPic=

>  <r_lp_tautomer_probability>  (154) 
1

>  <r_epik_Ionization_Penalty>  (154) 
0.000160135

>  <r_epik_Ionization_Penalty_Charging>  (154) 
0

>  <r_epik_Ionization_Penalty_Neutral>  (154) 
0.000160135

>  <r_epik_State_Penalty>  (154) 
-0

>  <r_epik_Charging_Adjusted_Penalty>  (154) 
0

>  <i_epik_Tot_Q>  (154) 
0

>  <i_epik_Tot_abs_Q>  (154) 
0

>  <s_epik_Chemistry_Notes>  (154) 
This compound has an imine and may undergo hydrolysis.

>  <s_lp_Force_Field>  (154) 
OPLS3e

>  <r_lp_Energy>  (154) 
-14.5698

>  <b_lp_Chiralities_Consistent>  (154) 
1

>  <s_lp_Variant>  (154) 
47:0-1

>  <s_i_glide_gridfile>  (154) 
pfpi4k_grid

>  <i_i_glide_lignum>  (154) 
34

>  <i_i_glide_rotatable_bonds>  (154) 
1

>  <r_i_docking_score>  (154) 
-4.12384

>  <r_i_glide_ligand_efficiency>  (154) 
-0.274923

>  <r_i_glide_ligand_efficiency_sa>  (154) 
-0.678018

>  <r_i_glide_ligand_efficiency_ln>  (154) 
-1.11213

>  <r_i_glide_gscore>  (154) 
-4.12384

>  <r_i_glide_lipo>  (154) 
0

>  <r_i_glide_hbond>  (154) 
-0.338793

>  <r_i_glide_metal>  (154) 
-0

>  <r_i_glide_rewards>  (154) 
-1.99646

>  <r_i_glide_evdw>  (154) 
-17.7893

>  <r_i_glide_ecoul>  (154) 
-7.56741

>  <r_i_glide_erotb>  (154) 
0.38495

>  <r_i_glide_esite>  (154) 
-0.148965

>  <r_i_glide_emodel>  (154) 
-33.369

>  <r_i_glide_energy>  (154) 
-25.3567

>  <r_i_glide_einternal>  (154) 
0.0282007

>  <r_i_glide_intrahb_reward>  (154) 
-0

>  <i_i_glide_confnum>  (154) 
3

>  <i_i_glide_posenum>  (154) 
25

>  <r_i_glide_eff_state_penalty>  (154) 
0

>  <ligand_id>  (154) 
47

>  <original_smiles>  (154) 
O=C1CCC2(N1)NC(c1ccco1)=NO2

>  <smiles>  (154) 
[H]c1oc(C2=NOC3(N([H])C(=O)C([H])([H])C3([H])[H])N2[H])c([H])c1[H]

$$$$
48:0:0
     RDKit          3D

 31 32  0  0  1  0  0  0  0  0999 V2000
    7.1857   -6.3048    2.5822 C   0  0  0  0  0  0  0  0  0  0  0  0
    8.0541   -5.9219    1.3769 C   0  0  2  0  0  0  0  0  0  0  0  0
    9.3962   -5.8527    1.8359 O   0  0  0  0  0  0  0  0  0  0  0  0
    7.6519   -4.5580    0.7761 C   0  0  2  0  0  0  0  0  0  0  0  0
    6.2001   -4.5874    0.2180 C   0  0  0  0  0  0  0  0  0  0  0  0
    5.8484   -3.3783   -0.5291 N   0  0  0  0  0  0  0  0  0  0  0  0
    4.4888   -3.4616   -1.0687 C   0  0  0  0  0  0  0  0  0  0  0  0
    4.0536   -2.3952   -2.0386 C   0  0  0  0  0  0  0  0  0  0  0  0
    3.4648   -2.5808   -3.2635 C   0  0  0  0  0  0  0  0  0  0  0  0
    3.4228   -1.0905   -4.1910 S   0  0  0  0  0  0  0  0  0  0  0  0
    4.1559   -0.2828   -2.8179 C   0  0  0  0  0  0  0  0  0  0  0  0
    4.3689   -1.0568   -1.7655 N   0  0  0  0  0  0  0  0  0  0  0  0
    6.8530   -3.1217   -1.5529 C   0  0  0  0  0  0  0  0  0  0  0  0
    8.2606   -3.0729   -0.9690 C   0  0  0  0  0  0  0  0  0  0  0  0
    8.5542   -4.2934   -0.3004 O   0  0  0  0  0  0  0  0  0  0  0  0
    6.1378   -6.4121    2.3117 H   0  0  0  0  0  0  0  0  0  0  0  0
    7.2427   -5.5332    3.3516 H   0  0  0  0  0  0  0  0  0  0  0  0
    7.4932   -7.2506    3.0280 H   0  0  0  0  0  0  0  0  0  0  0  0
    8.0099   -6.6955    0.6138 H   0  0  0  0  0  0  0  0  0  0  0  0
    9.8310   -6.7082    1.6950 H   0  0  0  0  0  0  0  0  0  0  0  0
    7.7465   -3.7603    1.5163 H   0  0  0  0  0  0  0  0  0  0  0  0
    6.1151   -5.4579   -0.4309 H   0  0  0  0  0  0  0  0  0  0  0  0
    5.4758   -4.7432    1.0172 H   0  0  0  0  0  0  0  0  0  0  0  0
    4.3403   -4.4374   -1.5272 H   0  0  0  0  0  0  0  0  0  0  0  0
    3.8063   -3.4640   -0.2169 H   0  0  0  0  0  0  0  0  0  0  0  0
    3.1440   -3.5184   -3.7005 H   0  0  0  0  0  0  0  0  0  0  0  0
    4.4167    0.7680   -2.7856 H   0  0  0  0  0  0  0  0  0  0  0  0
    6.7871   -3.8570   -2.3502 H   0  0  0  0  0  0  0  0  0  0  0  0
    6.6908   -2.1594   -2.0331 H   0  0  0  0  0  0  0  0  0  0  0  0
    8.9593   -2.9144   -1.7854 H   0  0  0  0  0  0  0  0  0  0  0  0
    8.3585   -2.2259   -0.2853 H   0  0  0  0  0  0  0  0  0  0  0  0
  1  2  1  0
  1 16  1  0
  1 17  1  0
  1 18  1  0
  2  3  1  0
  2  4  1  0
  2 19  1  6
  3 20  1  0
  4 15  1  0
  4  5  1  0
  4 21  1  1
  5  6  1  0
  5 22  1  0
  5 23  1  0
  6  7  1  0
  6 13  1  0
  7  8  1  0
  7 24  1  0
  7 25  1  0
  8 12  1  0
  8  9  2  0
  9 10  1  0
  9 26  1  0
 10 11  1  0
 11 12  2  0
 11 27  1  0
 13 14  1  0
 13 28  1  0
 13 29  1  0
 14 15  1  0
 14 30  1  0
 14 31  1  0
M  END
>  <i_m_ct_stereo_status>  (155) 
1

>  <s_m_source_file>  (155) 
/var/tmp/pbs.5076255.sched01/tmpgskxq70o/44i51uky9l.sdf

>  <i_m_source_file_index>  (155) 
35

>  <i_lp_mmshare_version>  (155) 
48012

>  <i_f3d_flags>  (155) 
0

>  <s_epik_input>  (155) 
W0NIM11bQ0BIXShbT0hdKVtDQEBIXTFbQ0gyXU4oW0NIMl1bQ0gyXU8xKVtDSDJdYzJbY0hdc1tjSF1uMg==

>  <s_epik_cmdline>  (155) 
J2VwaWtfcHl0aG9uJywgJy1waHQnLCAnMi4wJywgJy1waCcsICc3LjAnLCAnLXRuJywgJzgnLCAnLW1hJywgJzIwMCcsICctaW1hZScsICc8aW5maWxlLm1hZT4nLCAnLW9tYWUnLCAnPG91dGZpbGUubWFlPic=

>  <r_epik_Ionization_Penalty>  (155) 
0.0262731

>  <r_epik_Ionization_Penalty_Charging>  (155) 
0

>  <r_epik_Ionization_Penalty_Neutral>  (155) 
0.0262731

>  <r_epik_State_Penalty>  (155) 
0.0214117

>  <r_epik_Charging_Adjusted_Penalty>  (155) 
0.0214117

>  <i_epik_Tot_Q>  (155) 
0

>  <i_epik_Tot_abs_Q>  (155) 
0

>  <s_lp_Force_Field>  (155) 
OPLS3e

>  <r_lp_Energy>  (155) 
14.6502

>  <b_lp_Chiralities_Consistent>  (155) 
1

>  <s_lp_Variant>  (155) 
48:0-1

>  <s_i_glide_gridfile>  (155) 
pfpi4k_grid

>  <i_i_glide_lignum>  (155) 
35

>  <i_i_glide_rotatable_bonds>  (155) 
4

>  <r_i_docking_score>  (155) 
-4.02271

>  <r_i_glide_ligand_efficiency>  (155) 
-0.268181

>  <r_i_glide_ligand_efficiency_sa>  (155) 
-0.66139

>  <r_i_glide_ligand_efficiency_ln>  (155) 
-1.08486

>  <r_i_glide_gscore>  (155) 
-4.02271

>  <r_i_glide_lipo>  (155) 
-0.715474

>  <r_i_glide_hbond>  (155) 
0

>  <r_i_glide_metal>  (155) 
-0

>  <r_i_glide_rewards>  (155) 
-1.85242

>  <r_i_glide_evdw>  (155) 
-23.5421

>  <r_i_glide_ecoul>  (155) 
-6.42734

>  <r_i_glide_erotb>  (155) 
0.686387

>  <r_i_glide_esite>  (155) 
0

>  <r_i_glide_emodel>  (155) 
-34.0524

>  <r_i_glide_energy>  (155) 
-29.9694

>  <r_i_glide_einternal>  (155) 
6.82741

>  <r_i_glide_intrahb_reward>  (155) 
-0

>  <i_i_glide_confnum>  (155) 
6

>  <i_i_glide_posenum>  (155) 
15

>  <r_i_glide_eff_state_penalty>  (155) 
0

>  <ligand_id>  (155) 
48

>  <original_smiles>  (155) 
CC(O)C1CN(Cc2cscn2)CCO1

>  <smiles>  (155) 
[H]OC([H])(C([H])([H])[H])C1([H])OC([H])([H])C([H])([H])N(C([H])([H])c2nc([H])sc2[H])C1([H])[H]

$$$$
48:0:1
     RDKit          3D

 31 32  0  0  1  0  0  0  0  0999 V2000
    7.9505   -6.6833    1.0948 C   0  0  0  0  0  0  0  0  0  0  0  0
    7.6817   -5.4101    1.9011 C   0  0  2  0  0  0  0  0  0  0  0  0
    6.6380   -5.6656    2.8195 O   0  0  0  0  0  0  0  0  0  0  0  0
    7.3046   -4.1954    1.0204 C   0  0  2  0  0  0  0  0  0  0  0  0
    6.0040   -4.4019    0.2018 C   0  0  0  0  0  0  0  0  0  0  0  0
    5.7468   -3.2850   -0.6868 N   0  0  0  0  0  0  0  0  0  0  0  0
    4.5280   -3.4793   -1.4684 C   0  0  0  0  0  0  0  0  0  0  0  0
    4.0998   -2.3760   -2.3717 C   0  0  0  0  0  0  0  0  0  0  0  0
    3.4025   -2.4602   -3.5549 C   0  0  0  0  0  0  0  0  0  0  0  0
    3.2924   -0.8977   -4.3250 S   0  0  0  0  0  0  0  0  0  0  0  0
    4.1761   -0.2141   -2.9981 C   0  0  0  0  0  0  0  0  0  0  0  0
    4.4772   -1.0704   -2.0335 N   0  0  0  0  0  0  0  0  0  0  0  0
    6.9161   -3.0495   -1.5331 C   0  0  0  0  0  0  0  0  0  0  0  0
    8.1842   -2.8223   -0.7042 C   0  0  0  0  0  0  0  0  0  0  0  0
    8.4135   -3.9333    0.1549 O   0  0  0  0  0  0  0  0  0  0  0  0
    8.7638   -6.5335    0.3857 H   0  0  0  0  0  0  0  0  0  0  0  0
    7.0749   -6.9938    0.5345 H   0  0  0  0  0  0  0  0  0  0  0  0
    8.2254   -7.5142    1.7422 H   0  0  0  0  0  0  0  0  0  0  0  0
    8.5775   -5.1669    2.4786 H   0  0  0  0  0  0  0  0  0  0  0  0
    6.5254   -4.9054    3.3674 H   0  0  0  0  0  0  0  0  0  0  0  0
    7.1677   -3.3149    1.6532 H   0  0  0  0  0  0  0  0  0  0  0  0
    6.0660   -5.3170   -0.3814 H   0  0  0  0  0  0  0  0  0  0  0  0
    5.1606   -4.5335    0.8836 H   0  0  0  0  0  0  0  0  0  0  0  0
    4.6277   -4.4003   -2.0416 H   0  0  0  0  0  0  0  0  0  0  0  0
    3.7146   -3.6875   -0.7703 H   0  0  0  0  0  0  0  0  0  0  0  0
    2.9921   -3.3486   -4.0194 H   0  0  0  0  0  0  0  0  0  0  0  0
    4.4233    0.8292   -2.9153 H   0  0  0  0  0  0  0  0  0  0  0  0
    7.0593   -3.8543   -2.2436 H   0  0  0  0  0  0  0  0  0  0  0  0
    6.7676   -2.1721   -2.1573 H   0  0  0  0  0  0  0  0  0  0  0  0
    9.0096   -2.6913   -1.3782 H   0  0  0  0  0  0  0  0  0  0  0  0
    8.0889   -1.9026   -0.1275 H   0  0  0  0  0  0  0  0  0  0  0  0
  1  2  1  0
  1 16  1  0
  1 17  1  0
  1 18  1  0
  2  3  1  0
  2  4  1  0
  2 19  1  1
  3 20  1  0
  4 15  1  0
  4  5  1  0
  4 21  1  1
  5  6  1  0
  5 22  1  0
  5 23  1  0
  6  7  1  0
  6 13  1  0
  7  8  1  0
  7 24  1  0
  7 25  1  0
  8 12  1  0
  8  9  2  0
  9 10  1  0
  9 26  1  0
 10 11  1  0
 11 12  2  0
 11 27  1  0
 13 14  1  0
 13 28  1  0
 13 29  1  0
 14 15  1  0
 14 30  1  0
 14 31  1  0
M  END
>  <i_m_ct_stereo_status>  (156) 
1

>  <s_m_source_file>  (156) 
/var/tmp/pbs.5076255.sched01/tmpgskxq70o/44i51uky9l.sdf

>  <i_m_source_file_index>  (156) 
35

>  <i_lp_mmshare_version>  (156) 
48012

>  <i_f3d_flags>  (156) 
0

>  <s_epik_input>  (156) 
W0NIM11bQ0BIXShbT0hdKVtDQEBIXTFbQ0gyXU4oW0NIMl1bQ0gyXU8xKVtDSDJdYzJbY0hdc1tjSF1uMg==

>  <s_epik_cmdline>  (156) 
J2VwaWtfcHl0aG9uJywgJy1waHQnLCAnMi4wJywgJy1waCcsICc3LjAnLCAnLXRuJywgJzgnLCAnLW1hJywgJzIwMCcsICctaW1hZScsICc8aW5maWxlLm1hZT4nLCAnLW9tYWUnLCAnPG91dGZpbGUubWFlPic=

>  <r_epik_Ionization_Penalty>  (156) 
0.0262731

>  <r_epik_Ionization_Penalty_Charging>  (156) 
0

>  <r_epik_Ionization_Penalty_Neutral>  (156) 
0.0262731

>  <r_epik_State_Penalty>  (156) 
0.0214117

>  <r_epik_Charging_Adjusted_Penalty>  (156) 
0.0214117

>  <i_epik_Tot_Q>  (156) 
0

>  <i_epik_Tot_abs_Q>  (156) 
0

>  <s_lp_Force_Field>  (156) 
OPLS3e

>  <r_lp_Energy>  (156) 
14.6502

>  <b_lp_Chiralities_Consistent>  (156) 
1

>  <s_lp_Variant>  (156) 
48:0-1

>  <s_i_glide_gridfile>  (156) 
pfpi4k_grid

>  <i_i_glide_lignum>  (156) 
35

>  <i_i_glide_rotatable_bonds>  (156) 
4

>  <r_i_docking_score>  (156) 
-3.27087

>  <r_i_glide_ligand_efficiency>  (156) 
-0.218058

>  <r_i_glide_ligand_efficiency_sa>  (156) 
-0.537777

>  <r_i_glide_ligand_efficiency_ln>  (156) 
-0.882099

>  <r_i_glide_gscore>  (156) 
-3.27087

>  <r_i_glide_lipo>  (156) 
-0.859963

>  <r_i_glide_hbond>  (156) 
0

>  <r_i_glide_metal>  (156) 
-0

>  <r_i_glide_rewards>  (156) 
-1.85242

>  <r_i_glide_evdw>  (156) 
-25.4765

>  <r_i_glide_ecoul>  (156) 
-1.76809

>  <r_i_glide_erotb>  (156) 
0.980553

>  <r_i_glide_esite>  (156) 
0

>  <r_i_glide_emodel>  (156) 
-32.6495

>  <r_i_glide_energy>  (156) 
-27.2446

>  <r_i_glide_einternal>  (156) 
2.11321

>  <r_i_glide_intrahb_reward>  (156) 
-0

>  <i_i_glide_confnum>  (156) 
6

>  <i_i_glide_posenum>  (156) 
3

>  <r_i_glide_eff_state_penalty>  (156) 
0

>  <ligand_id>  (156) 
48

>  <original_smiles>  (156) 
CC(O)C1CN(Cc2cscn2)CCO1

>  <smiles>  (156) 
[H]OC([H])(C([H])([H])[H])C1([H])OC([H])([H])C([H])([H])N(C([H])([H])c2nc([H])sc2[H])C1([H])[H]

$$$$
48:0:2
     RDKit          3D

 31 32  0  0  1  0  0  0  0  0999 V2000
   -3.0043    3.3206    3.0516 C   0  0  0  0  0  0  0  0  0  0  0  0
   -1.8244    3.7792    3.9150 C   0  0  2  0  0  0  0  0  0  0  0  0
   -1.2206    4.8930    3.2837 O   0  0  0  0  0  0  0  0  0  0  0  0
   -0.7954    2.6640    4.2074 C   0  0  2  0  0  0  0  0  0  0  0  0
   -0.1130    2.1143    2.9348 C   0  0  0  0  0  0  0  0  0  0  0  0
    0.7872    1.0150    3.2213 N   0  0  0  0  0  0  0  0  0  0  0  0
    1.4048    0.5121    2.0010 C   0  0  0  0  0  0  0  0  0  0  0  0
    2.4971   -0.5067    2.1376 C   0  0  0  0  0  0  0  0  0  0  0  0
    2.3480   -1.8434    2.4114 C   0  0  0  0  0  0  0  0  0  0  0  0
    3.8897   -2.6395    2.6600 S   0  0  0  0  0  0  0  0  0  0  0  0
    4.6759   -1.0954    2.3514 C   0  0  0  0  0  0  0  0  0  0  0  0
    3.8320   -0.0914    2.0922 N   0  0  0  0  0  0  0  0  0  0  0  0
    0.0629   -0.0190    3.9424 C   0  0  0  0  0  0  0  0  0  0  0  0
   -0.5929    0.5210    5.2186 C   0  0  0  0  0  0  0  0  0  0  0  0
   -1.4585    1.6067    4.9046 O   0  0  0  0  0  0  0  0  0  0  0  0
   -3.5423    2.5098    3.5383 H   0  0  0  0  0  0  0  0  0  0  0  0
   -2.6833    2.9589    2.0820 H   0  0  0  0  0  0  0  0  0  0  0  0
   -3.7160    4.1261    2.8748 H   0  0  0  0  0  0  0  0  0  0  0  0
   -2.2207    4.1327    4.8698 H   0  0  0  0  0  0  0  0  0  0  0  0
   -0.7347    4.5895    2.5130 H   0  0  0  0  0  0  0  0  0  0  0  0
   -0.0216    3.0577    4.8714 H   0  0  0  0  0  0  0  0  0  0  0  0
   -0.8570    1.7831    2.2103 H   0  0  0  0  0  0  0  0  0  0  0  0
    0.4531    2.9221    2.4756 H   0  0  0  0  0  0  0  0  0  0  0  0
    0.6257    0.1252    1.3447 H   0  0  0  0  0  0  0  0  0  0  0  0
    1.8087    1.3694    1.4557 H   0  0  0  0  0  0  0  0  0  0  0  0
    1.4207   -2.3808    2.5281 H   0  0  0  0  0  0  0  0  0  0  0  0
    5.7416   -0.9240    2.3746 H   0  0  0  0  0  0  0  0  0  0  0  0
   -0.6945   -0.4580    3.2918 H   0  0  0  0  0  0  0  0  0  0  0  0
    0.7472   -0.8115    4.2381 H   0  0  0  0  0  0  0  0  0  0  0  0
   -1.1604   -0.2768    5.6963 H   0  0  0  0  0  0  0  0  0  0  0  0
    0.1754    0.8409    5.9258 H   0  0  0  0  0  0  0  0  0  0  0  0
  1  2  1  0
  1 16  1  0
  1 17  1  0
  1 18  1  0
  2  3  1  0
  2  4  1  0
  2 19  1  1
  3 20  1  0
  4 15  1  0
  4  5  1  0
  4 21  1  1
  5  6  1  0
  5 22  1  0
  5 23  1  0
  6  7  1  0
  6 13  1  0
  7  8  1  0
  7 24  1  0
  7 25  1  0
  8 12  1  0
  8  9  2  0
  9 10  1  0
  9 26  1  0
 10 11  1  0
 11 12  2  0
 11 27  1  0
 13 14  1  0
 13 28  1  0
 13 29  1  0
 14 15  1  0
 14 30  1  0
 14 31  1  0
M  END
>  <i_m_ct_stereo_status>  (157) 
1

>  <s_m_source_file>  (157) 
/var/tmp/pbs.5076255.sched01/tmpgskxq70o/44i51uky9l.sdf

>  <i_m_source_file_index>  (157) 
35

>  <i_lp_mmshare_version>  (157) 
48012

>  <i_f3d_flags>  (157) 
0

>  <s_epik_input>  (157) 
W0NIM11bQ0BIXShbT0hdKVtDQEBIXTFbQ0gyXU4oW0NIMl1bQ0gyXU8xKVtDSDJdYzJbY0hdc1tjSF1uMg==

>  <s_epik_cmdline>  (157) 
J2VwaWtfcHl0aG9uJywgJy1waHQnLCAnMi4wJywgJy1waCcsICc3LjAnLCAnLXRuJywgJzgnLCAnLW1hJywgJzIwMCcsICctaW1hZScsICc8aW5maWxlLm1hZT4nLCAnLW9tYWUnLCAnPG91dGZpbGUubWFlPic=

>  <r_epik_Ionization_Penalty>  (157) 
0.0262731

>  <r_epik_Ionization_Penalty_Charging>  (157) 
0

>  <r_epik_Ionization_Penalty_Neutral>  (157) 
0.0262731

>  <r_epik_State_Penalty>  (157) 
0.0214117

>  <r_epik_Charging_Adjusted_Penalty>  (157) 
0.0214117

>  <i_epik_Tot_Q>  (157) 
0

>  <i_epik_Tot_abs_Q>  (157) 
0

>  <s_lp_Force_Field>  (157) 
OPLS3e

>  <r_lp_Energy>  (157) 
14.6502

>  <b_lp_Chiralities_Consistent>  (157) 
1

>  <s_lp_Variant>  (157) 
48:0-1

>  <s_i_glide_gridfile>  (157) 
pfpi4k_grid

>  <i_i_glide_lignum>  (157) 
35

>  <i_i_glide_rotatable_bonds>  (157) 
4

>  <r_i_docking_score>  (157) 
-3.26538

>  <r_i_glide_ligand_efficiency>  (157) 
-0.217692

>  <r_i_glide_ligand_efficiency_sa>  (157) 
-0.536874

>  <r_i_glide_ligand_efficiency_ln>  (157) 
-0.880618

>  <r_i_glide_gscore>  (157) 
-3.26538

>  <r_i_glide_lipo>  (157) 
-0.0718275

>  <r_i_glide_hbond>  (157) 
-0.32

>  <r_i_glide_metal>  (157) 
-0

>  <r_i_glide_rewards>  (157) 
-1.85242

>  <r_i_glide_evdw>  (157) 
-18.9544

>  <r_i_glide_ecoul>  (157) 
-7.02645

>  <r_i_glide_erotb>  (157) 
0.980553

>  <r_i_glide_esite>  (157) 
0

>  <r_i_glide_emodel>  (157) 
-32.4959

>  <r_i_glide_energy>  (157) 
-25.9808

>  <r_i_glide_einternal>  (157) 
0.315892

>  <r_i_glide_intrahb_reward>  (157) 
-0

>  <i_i_glide_confnum>  (157) 
6

>  <i_i_glide_posenum>  (157) 
1

>  <r_i_glide_eff_state_penalty>  (157) 
0

>  <ligand_id>  (157) 
48

>  <original_smiles>  (157) 
CC(O)C1CN(Cc2cscn2)CCO1

>  <smiles>  (157) 
[H]OC([H])(C([H])([H])[H])C1([H])OC([H])([H])C([H])([H])N(C([H])([H])c2nc([H])sc2[H])C1([H])[H]

$$$$
48:1:0
     RDKit          3D

 32 33  0  0  1  0  0  0  0  0999 V2000
    2.9636    0.2708   -5.5155 C   0  0  0  0  0  0  0  0  0  0  0  0
    3.0912    0.0523   -4.0297 C   0  0  2  0  0  0  0  0  0  0  0  0
    4.2142    0.7690   -3.5608 O   0  0  0  0  0  0  0  0  0  0  0  0
    3.1608   -1.4105   -3.5843 C   0  0  2  0  0  0  0  0  0  0  0  0
    3.4256   -1.5263   -2.0721 C   0  0  0  0  0  0  0  0  0  0  0  0
    3.5740   -2.9374   -1.6569 N   0  0  2  0  0  0  0  0  0  0  0  0
    3.8807   -3.0362   -0.2113 C   0  0  0  0  0  0  0  0  0  0  0  0
    3.7860   -4.4483    0.2861 C   0  0  0  0  0  0  0  0  0  0  0  0
    4.7843   -5.4057    0.2364 C   0  0  0  0  0  0  0  0  0  0  0  0
    4.2572   -6.9280    0.8883 S   0  0  0  0  0  0  0  0  0  0  0  0
    2.6896   -6.2034    1.2262 C   0  0  0  0  0  0  0  0  0  0  0  0
    2.5952   -4.9270    0.8377 N   0  0  0  0  0  0  0  0  0  0  0  0
    4.6135   -3.5949   -2.4824 C   0  0  0  0  0  0  0  0  0  0  0  0
    4.2822   -3.4553   -3.9585 C   0  0  0  0  0  0  0  0  0  0  0  0
    4.1839   -2.0843   -4.3085 O   0  0  0  0  0  0  0  0  0  0  0  0
    2.0813   -0.2485   -5.8744 H   0  0  0  0  0  0  0  0  0  0  0  0
    3.8151   -0.1478   -6.0617 H   0  0  0  0  0  0  0  0  0  0  0  0
    2.8633    1.3254   -5.7762 H   0  0  0  0  0  0  0  0  0  0  0  0
    2.2177    0.4904   -3.5559 H   0  0  0  0  0  0  0  0  0  0  0  0
    3.8702    1.5889   -3.2266 H   0  0  0  0  0  0  0  0  0  0  0  0
    2.2081   -1.8898   -3.8164 H   0  0  0  0  0  0  0  0  0  0  0  0
    4.3430   -1.0022   -1.7956 H   0  0  0  0  0  0  0  0  0  0  0  0
    2.6255   -1.0450   -1.5267 H   0  0  0  0  0  0  0  0  0  0  0  0
    4.8704   -2.6091   -0.0171 H   0  0  0  0  0  0  0  0  0  0  0  0
    3.1732   -2.4255    0.3484 H   0  0  0  0  0  0  0  0  0  0  0  0
    5.7747   -5.3415   -0.1797 H   0  0  0  0  0  0  0  0  0  0  0  0
    1.8418   -6.6922    1.6895 H   0  0  0  0  0  0  0  0  0  0  0  0
    5.5905   -3.1627   -2.2558 H   0  0  0  0  0  0  0  0  0  0  0  0
    4.6595   -4.6565   -2.2643 H   0  0  0  0  0  0  0  0  0  0  0  0
    5.0922   -3.8958   -4.5371 H   0  0  0  0  0  0  0  0  0  0  0  0
    3.3701   -3.9927   -4.2261 H   0  0  0  0  0  0  0  0  0  0  0  0
    2.6841   -3.3986   -1.8158 H   0  0  0  0  0  0  0  0  0  0  0  0
  1  2  1  0
  1 16  1  0
  1 17  1  0
  1 18  1  0
  2  3  1  0
  2  4  1  0
  2 19  1  1
  3 20  1  0
  4 15  1  0
  4  5  1  0
  4 21  1  1
  5  6  1  0
  5 22  1  0
  5 23  1  0
  6  7  1  0
  6 13  1  0
  6 32  1  1
  7  8  1  0
  7 24  1  0
  7 25  1  0
  8 12  1  0
  8  9  2  0
  9 10  1  0
  9 26  1  0
 10 11  1  0
 11 12  2  0
 11 27  1  0
 13 14  1  0
 13 28  1  0
 13 29  1  0
 14 15  1  0
 14 30  1  0
 14 31  1  0
M  CHG  1   6   1
M  END
>  <i_m_ct_stereo_status>  (158) 
1

>  <s_m_source_file>  (158) 
/var/tmp/pbs.5076255.sched01/tmpgskxq70o/44i51uky9l.sdf

>  <i_m_source_file_index>  (158) 
36

>  <i_lp_mmshare_version>  (158) 
48012

>  <i_f3d_flags>  (158) 
0

>  <s_epik_input>  (158) 
W0NIM11bQ0BIXShbT0hdKVtDQEBIXTFbQ0gyXU4oW0NIMl1bQ0gyXU8xKVtDSDJdYzJbY0hdc1tjSF1uMg==

>  <s_epik_cmdline>  (158) 
J2VwaWtfcHl0aG9uJywgJy1waHQnLCAnMi4wJywgJy1waCcsICc3LjAnLCAnLXRuJywgJzgnLCAnLW1hJywgJzIwMCcsICctaW1hZScsICc8aW5maWxlLm1hZT4nLCAnLW9tYWUnLCAnPG91dGZpbGUubWFlPic=

>  <r_epik_Ionization_Penalty>  (158) 
1.85979

>  <r_epik_Ionization_Penalty_Charging>  (158) 
1.85979

>  <r_epik_Ionization_Penalty_Neutral>  (158) 
2.30693e-07

>  <r_epik_State_Penalty>  (158) 
1.97796

>  <r_epik_Charging_Adjusted_Penalty>  (158) 
3.83775

>  <i_epik_Tot_Q>  (158) 
1

>  <i_epik_Tot_abs_Q>  (158) 
1

>  <s_lp_Force_Field>  (158) 
OPLS3e

>  <r_lp_Energy>  (158) 
13.4789

>  <b_lp_Chiralities_Consistent>  (158) 
1

>  <s_lp_Variant>  (158) 
48:0-2

>  <s_i_glide_gridfile>  (158) 
pfpi4k_grid

>  <i_i_glide_lignum>  (158) 
36

>  <i_i_glide_rotatable_bonds>  (158) 
4

>  <r_i_docking_score>  (158) 
-3.94388

>  <r_i_glide_ligand_efficiency>  (158) 
-0.262925

>  <r_i_glide_ligand_efficiency_sa>  (158) 
-0.648429

>  <r_i_glide_ligand_efficiency_ln>  (158) 
-1.0636

>  <r_i_glide_gscore>  (158) 
-3.94388

>  <r_i_glide_lipo>  (158) 
-0.708608

>  <r_i_glide_hbond>  (158) 
-0.30691

>  <r_i_glide_metal>  (158) 
-0

>  <r_i_glide_rewards>  (158) 
-1.84554

>  <r_i_glide_evdw>  (158) 
-17.1315

>  <r_i_glide_ecoul>  (158) 
-7.90529

>  <r_i_glide_erotb>  (158) 
0.973255

>  <r_i_glide_esite>  (158) 
-0.0137008

>  <r_i_glide_emodel>  (158) 
-31.3429

>  <r_i_glide_energy>  (158) 
-25.0368

>  <r_i_glide_einternal>  (158) 
2.2727

>  <r_i_glide_intrahb_reward>  (158) 
-0

>  <i_i_glide_confnum>  (158) 
3

>  <i_i_glide_posenum>  (158) 
14

>  <r_i_glide_eff_state_penalty>  (158) 
0

>  <ligand_id>  (158) 
48

>  <original_smiles>  (158) 
CC(O)C1CN(Cc2cscn2)CCO1

>  <smiles>  (158) 
[H]OC([H])(C([H])([H])[H])C1([H])OC([H])([H])C([H])([H])[N+]([H])(C([H])([H])c2nc([H])sc2[H])C1([H])[H]

$$$$
48:1:1
     RDKit          3D

 32 33  0  0  1  0  0  0  0  0999 V2000
    3.5207   -1.0008   -2.8825 C   0  0  0  0  0  0  0  0  0  0  0  0
    4.1709   -2.3354   -3.2843 C   0  0  2  0  0  0  0  0  0  0  0  0
    3.2671   -3.0768   -4.0775 O   0  0  0  0  0  0  0  0  0  0  0  0
    4.6589   -3.2046   -2.1033 C   0  0  2  0  0  0  0  0  0  0  0  0
    3.5485   -3.4298   -1.0548 C   0  0  0  0  0  0  0  0  0  0  0  0
    4.0431   -4.1679    0.1218 N   0  0  2  0  0  0  0  0  0  0  0  0
    2.9844   -4.3525    1.1482 C   0  0  0  0  0  0  0  0  0  0  0  0
    2.5990   -5.7924    1.2649 C   0  0  0  0  0  0  0  0  0  0  0  0
    3.4259   -6.8436    1.5819 C   0  0  0  0  0  0  0  0  0  0  0  0
    2.5437   -8.3506    1.6867 S   0  0  0  0  0  0  0  0  0  0  0  0
    1.0779   -7.4609    1.2839 C   0  0  0  0  0  0  0  0  0  0  0  0
    1.2620   -6.1593    1.0655 N   0  0  0  0  0  0  0  0  0  0  0  0
    5.2428   -3.4988    0.6758 C   0  0  0  0  0  0  0  0  0  0  0  0
    6.3149   -3.2927   -0.4015 C   0  0  0  0  0  0  0  0  0  0  0  0
    5.7717   -2.5527   -1.4915 O   0  0  0  0  0  0  0  0  0  0  0  0
    4.2010   -0.4085   -2.2712 H   0  0  0  0  0  0  0  0  0  0  0  0
    2.6087   -1.1376   -2.3056 H   0  0  0  0  0  0  0  0  0  0  0  0
    3.2450   -0.4008   -3.7475 H   0  0  0  0  0  0  0  0  0  0  0  0
    5.0174   -2.1066   -3.9214 H   0  0  0  0  0  0  0  0  0  0  0  0
    2.5218   -3.3158   -3.5525 H   0  0  0  0  0  0  0  0  0  0  0  0
    5.0104   -4.1649   -2.4915 H   0  0  0  0  0  0  0  0  0  0  0  0
    3.1800   -2.4737   -0.6882 H   0  0  0  0  0  0  0  0  0  0  0  0
    2.7040   -3.9540   -1.5049 H   0  0  0  0  0  0  0  0  0  0  0  0
    3.2907   -3.9679    2.1182 H   0  0  0  0  0  0  0  0  0  0  0  0
    2.1101   -3.7508    0.8923 H   0  0  0  0  0  0  0  0  0  0  0  0
    4.4861   -6.8131    1.7862 H   0  0  0  0  0  0  0  0  0  0  0  0
    0.1026   -7.9086    1.1912 H   0  0  0  0  0  0  0  0  0  0  0  0
    4.9607   -2.5277    1.0803 H   0  0  0  0  0  0  0  0  0  0  0  0
    5.6492   -4.0892    1.4949 H   0  0  0  0  0  0  0  0  0  0  0  0
    7.1574   -2.7383    0.0149 H   0  0  0  0  0  0  0  0  0  0  0  0
    6.7083   -4.2509   -0.7315 H   0  0  0  0  0  0  0  0  0  0  0  0
    4.3180   -5.0856   -0.2132 H   0  0  0  0  0  0  0  0  0  0  0  0
  1  2  1  0
  1 16  1  0
  1 17  1  0
  1 18  1  0
  2  3  1  0
  2  4  1  0
  2 19  1  6
  3 20  1  0
  4 15  1  0
  4  5  1  0
  4 21  1  6
  5  6  1  0
  5 22  1  0
  5 23  1  0
  6  7  1  0
  6 13  1  0
  6 32  1  6
  7  8  1  0
  7 24  1  0
  7 25  1  0
  8 12  1  0
  8  9  2  0
  9 10  1  0
  9 26  1  0
 10 11  1  0
 11 12  2  0
 11 27  1  0
 13 14  1  0
 13 28  1  0
 13 29  1  0
 14 15  1  0
 14 30  1  0
 14 31  1  0
M  CHG  1   6   1
M  END
>  <i_m_ct_stereo_status>  (159) 
1

>  <s_m_source_file>  (159) 
/var/tmp/pbs.5076255.sched01/tmpgskxq70o/44i51uky9l.sdf

>  <i_m_source_file_index>  (159) 
36

>  <i_lp_mmshare_version>  (159) 
48012

>  <i_f3d_flags>  (159) 
0

>  <s_epik_input>  (159) 
W0NIM11bQ0BIXShbT0hdKVtDQEBIXTFbQ0gyXU4oW0NIMl1bQ0gyXU8xKVtDSDJdYzJbY0hdc1tjSF1uMg==

>  <s_epik_cmdline>  (159) 
J2VwaWtfcHl0aG9uJywgJy1waHQnLCAnMi4wJywgJy1waCcsICc3LjAnLCAnLXRuJywgJzgnLCAnLW1hJywgJzIwMCcsICctaW1hZScsICc8aW5maWxlLm1hZT4nLCAnLW9tYWUnLCAnPG91dGZpbGUubWFlPic=

>  <r_epik_Ionization_Penalty>  (159) 
1.85979

>  <r_epik_Ionization_Penalty_Charging>  (159) 
1.85979

>  <r_epik_Ionization_Penalty_Neutral>  (159) 
2.30693e-07

>  <r_epik_State_Penalty>  (159) 
1.97796

>  <r_epik_Charging_Adjusted_Penalty>  (159) 
3.83775

>  <i_epik_Tot_Q>  (159) 
1

>  <i_epik_Tot_abs_Q>  (159) 
1

>  <s_lp_Force_Field>  (159) 
OPLS3e

>  <r_lp_Energy>  (159) 
13.4789

>  <b_lp_Chiralities_Consistent>  (159) 
1

>  <s_lp_Variant>  (159) 
48:0-2

>  <s_i_glide_gridfile>  (159) 
pfpi4k_grid

>  <i_i_glide_lignum>  (159) 
36

>  <i_i_glide_rotatable_bonds>  (159) 
4

>  <r_i_docking_score>  (159) 
-3.91138

>  <r_i_glide_ligand_efficiency>  (159) 
-0.260759

>  <r_i_glide_ligand_efficiency_sa>  (159) 
-0.643086

>  <r_i_glide_ligand_efficiency_ln>  (159) 
-1.05484

>  <r_i_glide_gscore>  (159) 
-3.91138

>  <r_i_glide_lipo>  (159) 
-0.434959

>  <r_i_glide_hbond>  (159) 
-0.211311

>  <r_i_glide_metal>  (159) 
-0

>  <r_i_glide_rewards>  (159) 
-1.84554

>  <r_i_glide_evdw>  (159) 
-23.0405

>  <r_i_glide_ecoul>  (159) 
-8.26415

>  <r_i_glide_erotb>  (159) 
0.973255

>  <r_i_glide_esite>  (159) 
-0.001172

>  <r_i_glide_emodel>  (159) 
-37.5516

>  <r_i_glide_energy>  (159) 
-31.3047

>  <r_i_glide_einternal>  (159) 
3.10569

>  <r_i_glide_intrahb_reward>  (159) 
-0

>  <i_i_glide_confnum>  (159) 
1

>  <i_i_glide_posenum>  (159) 
26

>  <r_i_glide_eff_state_penalty>  (159) 
0

>  <ligand_id>  (159) 
48

>  <original_smiles>  (159) 
CC(O)C1CN(Cc2cscn2)CCO1

>  <smiles>  (159) 
[H]OC([H])(C([H])([H])[H])C1([H])OC([H])([H])C([H])([H])[N+]([H])(C([H])([H])c2nc([H])sc2[H])C1([H])[H]

$$$$
48:1:2
     RDKit          3D

 32 33  0  0  1  0  0  0  0  0999 V2000
    3.2790    0.1452    1.8212 C   0  0  0  0  0  0  0  0  0  0  0  0
    4.0969   -0.8411    2.6871 C   0  0  2  0  0  0  0  0  0  0  0  0
    5.3633   -0.2743    2.9685 O   0  0  0  0  0  0  0  0  0  0  0  0
    4.3001   -2.2442    2.0648 C   0  0  2  0  0  0  0  0  0  0  0  0
    4.9344   -2.1296    0.6732 C   0  0  0  0  0  0  0  0  0  0  0  0
    5.0282   -3.4273   -0.0300 N   0  0  2  0  0  0  0  0  0  0  0  0
    5.6522   -3.2763   -1.3765 C   0  0  0  0  0  0  0  0  0  0  0  0
    4.7994   -2.4754   -2.3321 C   0  0  0  0  0  0  0  0  0  0  0  0
    4.6147   -1.1126   -2.3780 C   0  0  0  0  0  0  0  0  0  0  0  0
    3.4255   -0.6537   -3.5761 S   0  0  0  0  0  0  0  0  0  0  0  0
    3.2238   -2.3471   -3.9443 C   0  0  0  0  0  0  0  0  0  0  0  0
    4.0434   -3.1626   -3.2804 N   0  0  0  0  0  0  0  0  0  0  0  0
    3.7098   -4.1108   -0.0406 C   0  0  0  0  0  0  0  0  0  0  0  0
    3.1287   -4.1956    1.3764 C   0  0  0  0  0  0  0  0  0  0  0  0
    3.0385   -2.8913    1.9410 O   0  0  0  0  0  0  0  0  0  0  0  0
    2.2998   -0.2688    1.5744 H   0  0  0  0  0  0  0  0  0  0  0  0
    3.7629    0.4014    0.8784 H   0  0  0  0  0  0  0  0  0  0  0  0
    3.1094    1.0918    2.3336 H   0  0  0  0  0  0  0  0  0  0  0  0
    3.5830   -0.9538    3.6408 H   0  0  0  0  0  0  0  0  0  0  0  0
    5.8815   -0.2552    2.1787 H   0  0  0  0  0  0  0  0  0  0  0  0
    4.9332   -2.8468    2.7202 H   0  0  0  0  0  0  0  0  0  0  0  0
    4.2784   -1.5018    0.0822 H   0  0  0  0  0  0  0  0  0  0  0  0
    5.9169   -1.6558    0.7224 H   0  0  0  0  0  0  0  0  0  0  0  0
    6.6407   -2.8254   -1.2755 H   0  0  0  0  0  0  0  0  0  0  0  0
    5.8199   -4.2737   -1.7859 H   0  0  0  0  0  0  0  0  0  0  0  0
    5.0613   -0.3501   -1.7563 H   0  0  0  0  0  0  0  0  0  0  0  0
    2.5488   -2.7310   -4.6960 H   0  0  0  0  0  0  0  0  0  0  0  0
    3.0023   -3.5714   -0.6676 H   0  0  0  0  0  0  0  0  0  0  0  0
    3.8147   -5.1059   -0.4686 H   0  0  0  0  0  0  0  0  0  0  0  0
    2.1279   -4.6255    1.3358 H   0  0  0  0  0  0  0  0  0  0  0  0
    3.7243   -4.8453    2.0175 H   0  0  0  0  0  0  0  0  0  0  0  0
    5.6466   -4.0102    0.5201 H   0  0  0  0  0  0  0  0  0  0  0  0
  1  2  1  0
  1 16  1  0
  1 17  1  0
  1 18  1  0
  2  3  1  0
  2  4  1  0
  2 19  1  1
  3 20  1  0
  4 15  1  0
  4  5  1  0
  4 21  1  1
  5  6  1  0
  5 22  1  0
  5 23  1  0
  6  7  1  0
  6 13  1  0
  6 32  1  1
  7  8  1  0
  7 24  1  0
  7 25  1  0
  8 12  1  0
  8  9  2  0
  9 10  1  0
  9 26  1  0
 10 11  1  0
 11 12  2  0
 11 27  1  0
 13 14  1  0
 13 28  1  0
 13 29  1  0
 14 15  1  0
 14 30  1  0
 14 31  1  0
M  CHG  1   6   1
M  END
>  <i_m_ct_stereo_status>  (160) 
1

>  <s_m_source_file>  (160) 
/var/tmp/pbs.5076255.sched01/tmpgskxq70o/44i51uky9l.sdf

>  <i_m_source_file_index>  (160) 
36

>  <i_lp_mmshare_version>  (160) 
48012

>  <i_f3d_flags>  (160) 
0

>  <s_epik_input>  (160) 
W0NIM11bQ0BIXShbT0hdKVtDQEBIXTFbQ0gyXU4oW0NIMl1bQ0gyXU8xKVtDSDJdYzJbY0hdc1tjSF1uMg==

>  <s_epik_cmdline>  (160) 
J2VwaWtfcHl0aG9uJywgJy1waHQnLCAnMi4wJywgJy1waCcsICc3LjAnLCAnLXRuJywgJzgnLCAnLW1hJywgJzIwMCcsICctaW1hZScsICc8aW5maWxlLm1hZT4nLCAnLW9tYWUnLCAnPG91dGZpbGUubWFlPic=

>  <r_epik_Ionization_Penalty>  (160) 
1.85979

>  <r_epik_Ionization_Penalty_Charging>  (160) 
1.85979

>  <r_epik_Ionization_Penalty_Neutral>  (160) 
2.30693e-07

>  <r_epik_State_Penalty>  (160) 
1.97796

>  <r_epik_Charging_Adjusted_Penalty>  (160) 
3.83775

>  <i_epik_Tot_Q>  (160) 
1

>  <i_epik_Tot_abs_Q>  (160) 
1

>  <s_lp_Force_Field>  (160) 
OPLS3e

>  <r_lp_Energy>  (160) 
13.4789

>  <b_lp_Chiralities_Consistent>  (160) 
1

>  <s_lp_Variant>  (160) 
48:0-2

>  <s_i_glide_gridfile>  (160) 
pfpi4k_grid

>  <i_i_glide_lignum>  (160) 
36

>  <i_i_glide_rotatable_bonds>  (160) 
4

>  <r_i_docking_score>  (160) 
-3.08175

>  <r_i_glide_ligand_efficiency>  (160) 
-0.20545

>  <r_i_glide_ligand_efficiency_sa>  (160) 
-0.506683

>  <r_i_glide_ligand_efficiency_ln>  (160) 
-0.831097

>  <r_i_glide_gscore>  (160) 
-3.08175

>  <r_i_glide_lipo>  (160) 
-0.613289

>  <r_i_glide_hbond>  (160) 
-0.026806

>  <r_i_glide_metal>  (160) 
-0

>  <r_i_glide_rewards>  (160) 
-1.84554

>  <r_i_glide_evdw>  (160) 
-24.9825

>  <r_i_glide_ecoul>  (160) 
-2.13495

>  <r_i_glide_erotb>  (160) 
0.973255

>  <r_i_glide_esite>  (160) 
0

>  <r_i_glide_emodel>  (160) 
-31.1475

>  <r_i_glide_energy>  (160) 
-27.1174

>  <r_i_glide_einternal>  (160) 
2.44268

>  <r_i_glide_intrahb_reward>  (160) 
-0

>  <i_i_glide_confnum>  (160) 
4

>  <i_i_glide_posenum>  (160) 
2

>  <r_i_glide_eff_state_penalty>  (160) 
0

>  <ligand_id>  (160) 
48

>  <original_smiles>  (160) 
CC(O)C1CN(Cc2cscn2)CCO1

>  <smiles>  (160) 
[H]OC([H])(C([H])([H])[H])C1([H])OC([H])([H])C([H])([H])[N+]([H])(C([H])([H])c2nc([H])sc2[H])C1([H])[H]

$$$$
49:0:0
     RDKit          3D

 57 60  0  0  1  0  0  0  0  0999 V2000
    4.3435   -0.9506    2.4338 C   0  0  0  0  0  0  0  0  0  0  0  0
    4.9359   -2.1573    1.6746 C   0  0  2  0  0  0  0  0  0  0  0  0
    5.9424   -1.6193    0.6238 C   0  0  0  0  0  0  0  0  0  0  0  0
    7.0115   -1.1308    0.9780 O   0  0  0  0  0  0  0  0  0  0  0  0
    5.5749   -1.6542   -0.6787 O   0  0  0  0  0  0  0  0  0  0  0  0
    4.5017   -2.4391   -1.1921 C   0  0  1  0  0  0  0  0  0  0  0  0
    4.0379   -1.7034   -2.4613 C   0  0  0  0  0  0  0  0  0  0  0  0
    5.0348   -3.8367   -1.5476 C   0  0  0  0  0  0  0  0  0  0  0  0
    5.4936   -4.6318   -0.3174 C   0  0  0  0  0  0  0  0  0  0  0  0
    4.4303   -4.6336    0.8034 C   0  0  1  0  0  0  0  0  0  0  0  0
    4.7711   -5.5633    2.0399 C   0  0  2  0  0  0  0  0  0  0  0  0
    5.9343   -5.0178    2.9044 C   0  0  0  0  0  0  0  0  0  0  0  0
    5.2725   -6.9696    1.6170 C   0  0  0  0  0  0  0  0  0  0  0  0
    4.2158   -7.7831    0.8956 C   0  0  0  0  0  0  0  0  0  0  0  0
    3.0818   -8.0928    1.8666 C   0  0  0  0  0  0  0  0  0  0  0  0
    2.4484   -6.8577    2.5704 C   0  0  0  0  0  0  0  0  0  0  0  0
    1.2713   -6.3671    1.6969 C   0  0  0  0  0  0  0  0  0  0  0  0
    1.8321   -7.4066    3.8802 C   0  0  0  0  0  0  0  0  0  0  0  0
    3.5024   -5.7272    2.9488 C   0  0  2  0  0  0  0  0  0  0  0  0
    2.8958   -4.3300    3.2803 C   0  0  0  0  0  0  0  0  0  0  0  0
    2.6558   -3.4074    2.0618 C   0  0  0  0  0  0  0  0  0  0  0  0
    3.8808   -3.1946    1.1299 C   0  0  1  0  0  0  0  0  0  0  0  0
    3.3554   -2.5747   -0.1804 C   0  0  0  0  0  0  0  0  0  0  0  0
    5.1363   -0.2909    2.7874 H   0  0  0  0  0  0  0  0  0  0  0  0
    3.8077   -1.2689    3.3293 H   0  0  0  0  0  0  0  0  0  0  0  0
    3.6710   -0.3534    1.8175 H   0  0  0  0  0  0  0  0  0  0  0  0
    5.5707   -2.6502    2.3934 H   0  0  0  0  0  0  0  0  0  0  0  0
    3.2029   -2.2144   -2.9430 H   0  0  0  0  0  0  0  0  0  0  0  0
    4.8469   -1.6301   -3.1908 H   0  0  0  0  0  0  0  0  0  0  0  0
    3.7139   -0.6897   -2.2273 H   0  0  0  0  0  0  0  0  0  0  0  0
    4.2307   -4.3829   -2.0402 H   0  0  0  0  0  0  0  0  0  0  0  0
    5.8479   -3.7785   -2.2741 H   0  0  0  0  0  0  0  0  0  0  0  0
    5.6745   -5.6486   -0.6574 H   0  0  0  0  0  0  0  0  0  0  0  0
    6.4483   -4.2583    0.0450 H   0  0  0  0  0  0  0  0  0  0  0  0
    3.5866   -5.1299    0.3242 H   0  0  0  0  0  0  0  0  0  0  0  0
    6.3627   -5.7884    3.5443 H   0  0  0  0  0  0  0  0  0  0  0  0
    5.6293   -4.2360    3.5954 H   0  0  0  0  0  0  0  0  0  0  0  0
    6.7443   -4.6352    2.2896 H   0  0  0  0  0  0  0  0  0  0  0  0
    6.1879   -6.9057    1.0288 H   0  0  0  0  0  0  0  0  0  0  0  0
    5.5471   -7.5384    2.5066 H   0  0  0  0  0  0  0  0  0  0  0  0
    3.8463   -7.2554    0.0237 H   0  0  0  0  0  0  0  0  0  0  0  0
    4.6513   -8.7130    0.5351 H   0  0  0  0  0  0  0  0  0  0  0  0
    2.3208   -8.6537    1.3275 H   0  0  0  0  0  0  0  0  0  0  0  0
    3.4650   -8.7949    2.6057 H   0  0  0  0  0  0  0  0  0  0  0  0
    0.6973   -5.5997    2.2118 H   0  0  0  0  0  0  0  0  0  0  0  0
    0.5660   -7.1725    1.4930 H   0  0  0  0  0  0  0  0  0  0  0  0
    1.5970   -5.9800    0.7344 H   0  0  0  0  0  0  0  0  0  0  0  0
    1.3269   -6.6291    4.4555 H   0  0  0  0  0  0  0  0  0  0  0  0
    2.6072   -7.8405    4.5177 H   0  0  0  0  0  0  0  0  0  0  0  0
    1.1084   -8.1986    3.6731 H   0  0  0  0  0  0  0  0  0  0  0  0
    3.9069   -6.0795    3.9006 H   0  0  0  0  0  0  0  0  0  0  0  0
    1.9635   -4.4479    3.8308 H   0  0  0  0  0  0  0  0  0  0  0  0
    3.5504   -3.8041    3.9747 H   0  0  0  0  0  0  0  0  0  0  0  0
    1.8537   -3.8365    1.4678 H   0  0  0  0  0  0  0  0  0  0  0  0
    2.2352   -2.4605    2.3960 H   0  0  0  0  0  0  0  0  0  0  0  0
    2.9250   -1.5926    0.0130 H   0  0  0  0  0  0  0  0  0  0  0  0
    2.5529   -3.1768   -0.6131 H   0  0  0  0  0  0  0  0  0  0  0  0
  1  2  1  0
  1 24  1  0
  1 25  1  0
  1 26  1  0
  2 22  1  0
  2  3  1  0
  2 27  1  1
  3  4  2  0
  3  5  1  0
  5  6  1  0
  6 23  1  0
  6  7  1  6
  6  8  1  0
  7 28  1  0
  7 29  1  0
  7 30  1  0
  8  9  1  0
  8 31  1  0
  8 32  1  0
  9 10  1  0
  9 33  1  0
  9 34  1  0
 10 22  1  0
 10 11  1  0
 10 35  1  6
 11 19  1  0
 11 12  1  1
 11 13  1  0
 12 36  1  0
 12 37  1  0
 12 38  1  0
 13 14  1  0
 13 39  1  0
 13 40  1  0
 14 15  1  0
 14 41  1  0
 14 42  1  0
 15 16  1  0
 15 43  1  0
 15 44  1  0
 16 17  1  0
 16 18  1  0
 16 19  1  0
 17 45  1  0
 17 46  1  0
 17 47  1  0
 18 48  1  0
 18 49  1  0
 18 50  1  0
 19 20  1  0
 19 51  1  1
 20 21  1  0
 20 52  1  0
 20 53  1  0
 22 21  1  1
 21 54  1  0
 21 55  1  0
 22 23  1  0
 23 56  1  0
 23 57  1  0
M  END
>  <i_m_ct_stereo_status>  (161) 
1

>  <s_m_source_file>  (161) 
/var/tmp/pbs.5076255.sched01/tmpgskxq70o/44i51uky9l.sdf

>  <i_m_source_file_index>  (161) 
37

>  <i_lp_mmshare_version>  (161) 
48012

>  <i_f3d_flags>  (161) 
0

>  <s_epik_input>  (161) 
W0NIM11bQ0BASF0xQyg9TylPW0NAXShbQ0gzXSkoW0NIMl0yKVtDSDJdW0NIMl1bQ0BIXShbQ0BAXTEyMylbQ0BAXTQoW0NIM10pW0NAQEhdKFtDSDJdW0NIMl0zKUMoW0NIM10pKFtDSDNdKVtDSDJdW0NIMl1bQ0gyXTQ=

>  <s_epik_cmdline>  (161) 
J2VwaWtfcHl0aG9uJywgJy1waHQnLCAnMi4wJywgJy1waCcsICc3LjAnLCAnLXRuJywgJzgnLCAnLW1hJywgJzIwMCcsICctaW1hZScsICc8aW5maWxlLm1hZT4nLCAnLW9tYWUnLCAnPG91dGZpbGUubWFlPic=

>  <r_lp_tautomer_probability>  (161) 
1

>  <r_epik_Ionization_Penalty>  (161) 
2.37832e-09

>  <r_epik_Ionization_Penalty_Charging>  (161) 
0

>  <r_epik_Ionization_Penalty_Neutral>  (161) 
2.37832e-09

>  <r_epik_State_Penalty>  (161) 
-0

>  <r_epik_Charging_Adjusted_Penalty>  (161) 
0

>  <i_epik_Tot_Q>  (161) 
0

>  <i_epik_Tot_abs_Q>  (161) 
0

>  <s_epik_Chemistry_Notes>  (161) 
This compound has an ester and may undergo hydrolysis at high or low pH.

>  <s_lp_Force_Field>  (161) 
OPLS3e

>  <r_lp_Energy>  (161) 
71.1728

>  <b_lp_Chiralities_Consistent>  (161) 
1

>  <s_lp_Variant>  (161) 
49:0-1

>  <s_i_glide_gridfile>  (161) 
pfpi4k_grid

>  <i_i_glide_lignum>  (161) 
37

>  <i_i_glide_rotatable_bonds>  (161) 
0

>  <r_i_docking_score>  (161) 
-3.07476

>  <r_i_glide_ligand_efficiency>  (161) 
-0.133685

>  <r_i_glide_ligand_efficiency_sa>  (161) 
-0.380183

>  <r_i_glide_ligand_efficiency_ln>  (161) 
-0.743504

>  <r_i_glide_gscore>  (161) 
-3.07476

>  <r_i_glide_lipo>  (161) 
-0.322854

>  <r_i_glide_hbond>  (161) 
0

>  <r_i_glide_metal>  (161) 
-0

>  <r_i_glide_rewards>  (161) 
-1.38493

>  <r_i_glide_evdw>  (161) 
-24.8178

>  <r_i_glide_ecoul>  (161) 
-0.84058

>  <r_i_glide_erotb>  (161) 
0

>  <r_i_glide_esite>  (161) 
0

>  <r_i_glide_emodel>  (161) 
-30.0059

>  <r_i_glide_energy>  (161) 
-25.6583

>  <r_i_glide_einternal>  (161) 
0

>  <r_i_glide_intrahb_reward>  (161) 
-0

>  <i_i_glide_confnum>  (161) 
2

>  <i_i_glide_posenum>  (161) 
15

>  <r_i_glide_eff_state_penalty>  (161) 
0

>  <ligand_id>  (161) 
49

>  <original_smiles>  (161) 
CC1C(=O)OC2(C)CCC3C4(C)CCCC(C)(C)C4CCC13C2

>  <smiles>  (161) 
[H]C([H])([H])C1([H])C(=O)OC2(C([H])([H])[H])C([H])([H])C([H])([H])C3([H])C1(C([H])([H])C([H])([H])C1([H])C(C([H])([H])[H])(C([H])([H])[H])C([H])([H])C([H])([H])C([H])([H])C13C([H])([H])[H])C2([H])[H]

$$$$
49:0:1
     RDKit          3D

 57 60  0  0  1  0  0  0  0  0999 V2000
    4.3184   -5.2173    3.3252 C   0  0  0  0  0  0  0  0  0  0  0  0
    4.5259   -3.7662    2.8560 C   0  0  2  0  0  0  0  0  0  0  0  0
    4.5078   -2.8360    4.1186 C   0  0  0  0  0  0  0  0  0  0  0  0
    5.4254   -2.9552    4.9193 O   0  0  0  0  0  0  0  0  0  0  0  0
    3.4340   -2.0498    4.2795 O   0  0  0  0  0  0  0  0  0  0  0  0
    2.4626   -1.7465    3.2934 C   0  0  1  0  0  0  0  0  0  0  0  0
    1.1728   -1.4483    4.0766 C   0  0  0  0  0  0  0  0  0  0  0  0
    2.9143   -0.5057    2.5028 C   0  0  0  0  0  0  0  0  0  0  0  0
    4.1973   -0.7602    1.6903 C   0  0  0  0  0  0  0  0  0  0  0  0
    4.0935   -2.0535    0.8537 C   0  0  1  0  0  0  0  0  0  0  0  0
    5.3083   -2.3217   -0.1287 C   0  0  2  0  0  0  0  0  0  0  0  0
    6.6249   -2.6803    0.6123 C   0  0  0  0  0  0  0  0  0  0  0  0
    5.6847   -1.0820   -0.9291 C   0  0  0  0  0  0  0  0  0  0  0  0
    4.5944   -0.6479   -1.8893 C   0  0  0  0  0  0  0  0  0  0  0  0
    4.4206   -1.6519   -2.9837 C   0  0  0  0  0  0  0  0  0  0  0  0
    4.1443   -3.0685   -2.4704 C   0  0  0  0  0  0  0  0  0  0  0  0
    2.6134   -3.2076   -2.3593 C   0  0  0  0  0  0  0  0  0  0  0  0
    4.6503   -3.9358   -3.6572 C   0  0  0  0  0  0  0  0  0  0  0  0
    4.9644   -3.4394   -1.1513 C   0  0  2  0  0  0  0  0  0  0  0  0
    4.4762   -4.6877   -0.3703 C   0  0  0  0  0  0  0  0  0  0  0  0
    3.3062   -4.4089    0.6184 C   0  0  0  0  0  0  0  0  0  0  0  0
    3.5953   -3.2976    1.6681 C   0  0  1  0  0  0  0  0  0  0  0  0
    2.2592   -2.9265    2.3390 C   0  0  0  0  0  0  0  0  0  0  0  0
    5.0088   -5.4603    4.1352 H   0  0  0  0  0  0  0  0  0  0  0  0
    4.5380   -5.9324    2.5324 H   0  0  0  0  0  0  0  0  0  0  0  0
    3.3103   -5.3960    3.6930 H   0  0  0  0  0  0  0  0  0  0  0  0
    5.5521   -3.7259    2.5290 H   0  0  0  0  0  0  0  0  0  0  0  0
    0.3429   -1.2110    3.4086 H   0  0  0  0  0  0  0  0  0  0  0  0
    1.3120   -0.5989    4.7467 H   0  0  0  0  0  0  0  0  0  0  0  0
    0.8779   -2.3025    4.6854 H   0  0  0  0  0  0  0  0  0  0  0  0
    2.1185   -0.2267    1.8035 H   0  0  0  0  0  0  0  0  0  0  0  0
    3.0566    0.3501    3.1586 H   0  0  0  0  0  0  0  0  0  0  0  0
    4.3300    0.1118    1.0498 H   0  0  0  0  0  0  0  0  0  0  0  0
    5.0599   -0.7834    2.3530 H   0  0  0  0  0  0  0  0  0  0  0  0
    3.2604   -1.8347    0.1895 H   0  0  0  0  0  0  0  0  0  0  0  0
    7.5038   -2.5361   -0.0175 H   0  0  0  0  0  0  0  0  0  0  0  0
    6.6907   -3.7277    0.9002 H   0  0  0  0  0  0  0  0  0  0  0  0
    6.7756   -2.0752    1.5021 H   0  0  0  0  0  0  0  0  0  0  0  0
    6.0055   -0.2602   -0.2836 H   0  0  0  0  0  0  0  0  0  0  0  0
    6.5387   -1.3625   -1.5473 H   0  0  0  0  0  0  0  0  0  0  0  0
    3.6842   -0.4467   -1.3585 H   0  0  0  0  0  0  0  0  0  0  0  0
    4.8909    0.2836   -2.3754 H   0  0  0  0  0  0  0  0  0  0  0  0
    3.6049   -1.2890   -3.6221 H   0  0  0  0  0  0  0  0  0  0  0  0
    5.2791   -1.6404   -3.6136 H   0  0  0  0  0  0  0  0  0  0  0  0
    2.2910   -4.2171   -2.1188 H   0  0  0  0  0  0  0  0  0  0  0  0
    2.1054   -2.9473   -3.2864 H   0  0  0  0  0  0  0  0  0  0  0  0
    2.2185   -2.5524   -1.5859 H   0  0  0  0  0  0  0  0  0  0  0  0
    4.6192   -5.0062   -3.4709 H   0  0  0  0  0  0  0  0  0  0  0  0
    5.7101   -3.7304   -3.8525 H   0  0  0  0  0  0  0  0  0  0  0  0
    4.1095   -3.7193   -4.5748 H   0  0  0  0  0  0  0  0  0  0  0  0
    5.9318   -3.7478   -1.5541 H   0  0  0  0  0  0  0  0  0  0  0  0
    4.2257   -5.4517   -1.0954 H   0  0  0  0  0  0  0  0  0  0  0  0
    5.2903   -5.1331    0.1884 H   0  0  0  0  0  0  0  0  0  0  0  0
    2.4188   -4.1231    0.0651 H   0  0  0  0  0  0  0  0  0  0  0  0
    3.0095   -5.3430    1.0930 H   0  0  0  0  0  0  0  0  0  0  0  0
    1.8431   -3.7800    2.8777 H   0  0  0  0  0  0  0  0  0  0  0  0
    1.5149   -2.6333    1.5966 H   0  0  0  0  0  0  0  0  0  0  0  0
  1  2  1  0
  1 24  1  0
  1 25  1  0
  1 26  1  0
  2 22  1  0
  2  3  1  0
  2 27  1  6
  3  4  2  0
  3  5  1  0
  5  6  1  0
  6 23  1  0
  6  7  1  1
  6  8  1  0
  7 28  1  0
  7 29  1  0
  7 30  1  0
  8  9  1  0
  8 31  1  0
  8 32  1  0
  9 10  1  0
  9 33  1  0
  9 34  1  0
 10 22  1  0
 10 11  1  0
 10 35  1  6
 11 19  1  0
 11 12  1  1
 11 13  1  0
 12 36  1  0
 12 37  1  0
 12 38  1  0
 13 14  1  0
 13 39  1  0
 13 40  1  0
 14 15  1  0
 14 41  1  0
 14 42  1  0
 15 16  1  0
 15 43  1  0
 15 44  1  0
 16 17  1  0
 16 18  1  0
 16 19  1  0
 17 45  1  0
 17 46  1  0
 17 47  1  0
 18 48  1  0
 18 49  1  0
 18 50  1  0
 19 20  1  0
 19 51  1  6
 20 21  1  0
 20 52  1  0
 20 53  1  0
 22 21  1  6
 21 54  1  0
 21 55  1  0
 22 23  1  0
 23 56  1  0
 23 57  1  0
M  END
>  <i_m_ct_stereo_status>  (162) 
1

>  <s_m_source_file>  (162) 
/var/tmp/pbs.5076255.sched01/tmpgskxq70o/44i51uky9l.sdf

>  <i_m_source_file_index>  (162) 
37

>  <i_lp_mmshare_version>  (162) 
48012

>  <i_f3d_flags>  (162) 
0

>  <s_epik_input>  (162) 
W0NIM11bQ0BASF0xQyg9TylPW0NAXShbQ0gzXSkoW0NIMl0yKVtDSDJdW0NIMl1bQ0BIXShbQ0BAXTEyMylbQ0BAXTQoW0NIM10pW0NAQEhdKFtDSDJdW0NIMl0zKUMoW0NIM10pKFtDSDNdKVtDSDJdW0NIMl1bQ0gyXTQ=

>  <s_epik_cmdline>  (162) 
J2VwaWtfcHl0aG9uJywgJy1waHQnLCAnMi4wJywgJy1waCcsICc3LjAnLCAnLXRuJywgJzgnLCAnLW1hJywgJzIwMCcsICctaW1hZScsICc8aW5maWxlLm1hZT4nLCAnLW9tYWUnLCAnPG91dGZpbGUubWFlPic=

>  <r_lp_tautomer_probability>  (162) 
1

>  <r_epik_Ionization_Penalty>  (162) 
2.37832e-09

>  <r_epik_Ionization_Penalty_Charging>  (162) 
0

>  <r_epik_Ionization_Penalty_Neutral>  (162) 
2.37832e-09

>  <r_epik_State_Penalty>  (162) 
-0

>  <r_epik_Charging_Adjusted_Penalty>  (162) 
0

>  <i_epik_Tot_Q>  (162) 
0

>  <i_epik_Tot_abs_Q>  (162) 
0

>  <s_epik_Chemistry_Notes>  (162) 
This compound has an ester and may undergo hydrolysis at high or low pH.

>  <s_lp_Force_Field>  (162) 
OPLS3e

>  <r_lp_Energy>  (162) 
71.1728

>  <b_lp_Chiralities_Consistent>  (162) 
1

>  <s_lp_Variant>  (162) 
49:0-1

>  <s_i_glide_gridfile>  (162) 
pfpi4k_grid

>  <i_i_glide_lignum>  (162) 
37

>  <i_i_glide_rotatable_bonds>  (162) 
0

>  <r_i_docking_score>  (162) 
-2.72975

>  <r_i_glide_ligand_efficiency>  (162) 
-0.118685

>  <r_i_glide_ligand_efficiency_sa>  (162) 
-0.337524

>  <r_i_glide_ligand_efficiency_ln>  (162) 
-0.660079

>  <r_i_glide_gscore>  (162) 
-2.72975

>  <r_i_glide_lipo>  (162) 
-0.291025

>  <r_i_glide_hbond>  (162) 
0

>  <r_i_glide_metal>  (162) 
-0

>  <r_i_glide_rewards>  (162) 
-1.26233

>  <r_i_glide_evdw>  (162) 
-19.902

>  <r_i_glide_ecoul>  (162) 
-1.20864

>  <r_i_glide_erotb>  (162) 
0

>  <r_i_glide_esite>  (162) 
0

>  <r_i_glide_emodel>  (162) 
-24.7094

>  <r_i_glide_energy>  (162) 
-21.1106

>  <r_i_glide_einternal>  (162) 
0

>  <r_i_glide_intrahb_reward>  (162) 
-0

>  <i_i_glide_confnum>  (162) 
1

>  <i_i_glide_posenum>  (162) 
22

>  <r_i_glide_eff_state_penalty>  (162) 
0

>  <ligand_id>  (162) 
49

>  <original_smiles>  (162) 
CC1C(=O)OC2(C)CCC3C4(C)CCCC(C)(C)C4CCC13C2

>  <smiles>  (162) 
[H]C([H])([H])C1([H])C(=O)OC2(C([H])([H])[H])C([H])([H])C([H])([H])C3([H])C1(C([H])([H])C([H])([H])C1([H])C(C([H])([H])[H])(C([H])([H])[H])C([H])([H])C([H])([H])C([H])([H])C13C([H])([H])[H])C2([H])[H]

$$$$
49:0:2
     RDKit          3D

 57 60  0  0  1  0  0  0  0  0999 V2000
    7.4934   -2.5311   -1.5872 C   0  0  0  0  0  0  0  0  0  0  0  0
    5.9797   -2.7450   -1.4604 C   0  0  2  0  0  0  0  0  0  0  0  0
    5.3821   -3.1450   -2.8017 C   0  0  0  0  0  0  0  0  0  0  0  0
    5.3752   -4.2971   -3.2050 O   0  0  0  0  0  0  0  0  0  0  0  0
    4.7318   -2.2696   -3.5766 O   0  0  0  0  0  0  0  0  0  0  0  0
    4.0308   -1.1784   -3.0141 C   0  0  1  0  0  0  0  0  0  0  0  0
    3.7780   -0.2324   -4.2174 C   0  0  0  0  0  0  0  0  0  0  0  0
    2.7206   -1.6975   -2.4603 C   0  0  0  0  0  0  0  0  0  0  0  0
    2.8762   -2.6631   -1.2628 C   0  0  0  0  0  0  0  0  0  0  0  0
    3.7995   -2.0731   -0.1658 C   0  0  1  0  0  0  0  0  0  0  0  0
    3.8588   -2.8892    1.1826 C   0  0  2  0  0  0  0  0  0  0  0  0
    4.5348   -4.2749    0.9872 C   0  0  0  0  0  0  0  0  0  0  0  0
    2.4571   -3.2297    1.7270 C   0  0  0  0  0  0  0  0  0  0  0  0
    1.6519   -2.0132    2.1645 C   0  0  0  0  0  0  0  0  0  0  0  0
    2.3128   -1.4056    3.3800 C   0  0  0  0  0  0  0  0  0  0  0  0
    3.7962   -1.0462    3.1748 C   0  0  0  0  0  0  0  0  0  0  0  0
    3.8262    0.3867    2.6393 C   0  0  0  0  0  0  0  0  0  0  0  0
    4.4163   -1.0129    4.5861 C   0  0  0  0  0  0  0  0  0  0  0  0
    4.6211   -2.0852    2.2928 C   0  0  2  0  0  0  0  0  0  0  0  0
    5.9801   -1.5801    1.7329 C   0  0  0  0  0  0  0  0  0  0  0  0
    5.9029   -0.8232    0.3916 C   0  0  0  0  0  0  0  0  0  0  0  0
    5.1680   -1.5850   -0.7500 C   0  0  1  0  0  0  0  0  0  0  0  0
    4.8713   -0.5931   -1.8901 C   0  0  0  0  0  0  0  0  0  0  0  0
    7.9860   -3.4043   -2.0147 H   0  0  0  0  0  0  0  0  0  0  0  0
    8.0039   -2.2718   -0.6584 H   0  0  0  0  0  0  0  0  0  0  0  0
    7.6534   -1.8044   -2.3562 H   0  0  0  0  0  0  0  0  0  0  0  0
    5.9099   -3.6248   -0.8521 H   0  0  0  0  0  0  0  0  0  0  0  0
    3.3473    0.7196   -3.8979 H   0  0  0  0  0  0  0  0  0  0  0  0
    3.1149   -0.7011   -4.9496 H   0  0  0  0  0  0  0  0  0  0  0  0
    4.6953   -0.0273   -4.7610 H   0  0  0  0  0  0  0  0  0  0  0  0
    2.1942   -0.7743   -2.1461 H   0  0  0  0  0  0  0  0  0  0  0  0
    2.0957   -2.1235   -3.2397 H   0  0  0  0  0  0  0  0  0  0  0  0
    1.9000   -2.7566   -0.8335 H   0  0  0  0  0  0  0  0  0  0  0  0
    3.1611   -3.6712   -1.5746 H   0  0  0  0  0  0  0  0  0  0  0  0
    3.3032   -1.1445    0.1149 H   0  0  0  0  0  0  0  0  0  0  0  0
    4.2864   -4.9618    1.7938 H   0  0  0  0  0  0  0  0  0  0  0  0
    5.6198   -4.2253    0.9905 H   0  0  0  0  0  0  0  0  0  0  0  0
    4.2194   -4.7531    0.0579 H   0  0  0  0  0  0  0  0  0  0  0  0
    1.9023   -3.8332    1.0121 H   0  0  0  0  0  0  0  0  0  0  0  0
    2.5594   -3.8585    2.6110 H   0  0  0  0  0  0  0  0  0  0  0  0
    1.5173   -1.2923    1.3538 H   0  0  0  0  0  0  0  0  0  0  0  0
    0.6534   -2.3039    2.4826 H   0  0  0  0  0  0  0  0  0  0  0  0
    1.7514   -0.5096    3.6313 H   0  0  0  0  0  0  0  0  0  0  0  0
    2.1899   -2.0865    4.2288 H   0  0  0  0  0  0  0  0  0  0  0  0
    4.8723    0.6602    2.6731 H   0  0  0  0  0  0  0  0  0  0  0  0
    3.3021    1.0977    3.2839 H   0  0  0  0  0  0  0  0  0  0  0  0
    3.4386    0.5044    1.6266 H   0  0  0  0  0  0  0  0  0  0  0  0
    5.4716   -0.7366    4.5721 H   0  0  0  0  0  0  0  0  0  0  0  0
    4.3356   -1.9969    5.0517 H   0  0  0  0  0  0  0  0  0  0  0  0
    3.8867   -0.3076    5.2302 H   0  0  0  0  0  0  0  0  0  0  0  0
    4.8974   -2.8493    3.0181 H   0  0  0  0  0  0  0  0  0  0  0  0
    6.4812   -0.9482    2.4625 H   0  0  0  0  0  0  0  0  0  0  0  0
    6.6529   -2.4255    1.5906 H   0  0  0  0  0  0  0  0  0  0  0  0
    5.3929    0.1305    0.5419 H   0  0  0  0  0  0  0  0  0  0  0  0
    6.9114   -0.5302    0.0996 H   0  0  0  0  0  0  0  0  0  0  0  0
    5.8070   -0.1939   -2.2993 H   0  0  0  0  0  0  0  0  0  0  0  0
    4.2581    0.1835   -1.4405 H   0  0  0  0  0  0  0  0  0  0  0  0
  1  2  1  0
  1 24  1  0
  1 25  1  0
  1 26  1  0
  2 22  1  0
  2  3  1  0
  2 27  1  1
  3  4  2  0
  3  5  1  0
  5  6  1  0
  6 23  1  0
  6  7  1  6
  6  8  1  0
  7 28  1  0
  7 29  1  0
  7 30  1  0
  8  9  1  0
  8 31  1  0
  8 32  1  0
  9 10  1  0
  9 33  1  0
  9 34  1  0
 10 22  1  0
 10 11  1  0
 10 35  1  1
 11 19  1  0
 11 12  1  6
 11 13  1  0
 12 36  1  0
 12 37  1  0
 12 38  1  0
 13 14  1  0
 13 39  1  0
 13 40  1  0
 14 15  1  0
 14 41  1  0
 14 42  1  0
 15 16  1  0
 15 43  1  0
 15 44  1  0
 16 17  1  0
 16 18  1  0
 16 19  1  0
 17 45  1  0
 17 46  1  0
 17 47  1  0
 18 48  1  0
 18 49  1  0
 18 50  1  0
 19 20  1  0
 19 51  1  1
 20 21  1  0
 20 52  1  0
 20 53  1  0
 22 21  1  1
 21 54  1  0
 21 55  1  0
 22 23  1  0
 23 56  1  0
 23 57  1  0
M  END
>  <i_m_ct_stereo_status>  (163) 
1

>  <s_m_source_file>  (163) 
/var/tmp/pbs.5076255.sched01/tmpgskxq70o/44i51uky9l.sdf

>  <i_m_source_file_index>  (163) 
37

>  <i_lp_mmshare_version>  (163) 
48012

>  <i_f3d_flags>  (163) 
0

>  <s_epik_input>  (163) 
W0NIM11bQ0BASF0xQyg9TylPW0NAXShbQ0gzXSkoW0NIMl0yKVtDSDJdW0NIMl1bQ0BIXShbQ0BAXTEyMylbQ0BAXTQoW0NIM10pW0NAQEhdKFtDSDJdW0NIMl0zKUMoW0NIM10pKFtDSDNdKVtDSDJdW0NIMl1bQ0gyXTQ=

>  <s_epik_cmdline>  (163) 
J2VwaWtfcHl0aG9uJywgJy1waHQnLCAnMi4wJywgJy1waCcsICc3LjAnLCAnLXRuJywgJzgnLCAnLW1hJywgJzIwMCcsICctaW1hZScsICc8aW5maWxlLm1hZT4nLCAnLW9tYWUnLCAnPG91dGZpbGUubWFlPic=

>  <r_lp_tautomer_probability>  (163) 
1

>  <r_epik_Ionization_Penalty>  (163) 
2.37832e-09

>  <r_epik_Ionization_Penalty_Charging>  (163) 
0

>  <r_epik_Ionization_Penalty_Neutral>  (163) 
2.37832e-09

>  <r_epik_State_Penalty>  (163) 
-0

>  <r_epik_Charging_Adjusted_Penalty>  (163) 
0

>  <i_epik_Tot_Q>  (163) 
0

>  <i_epik_Tot_abs_Q>  (163) 
0

>  <s_epik_Chemistry_Notes>  (163) 
This compound has an ester and may undergo hydrolysis at high or low pH.

>  <s_lp_Force_Field>  (163) 
OPLS3e

>  <r_lp_Energy>  (163) 
71.1728

>  <b_lp_Chiralities_Consistent>  (163) 
1

>  <s_lp_Variant>  (163) 
49:0-1

>  <s_i_glide_gridfile>  (163) 
pfpi4k_grid

>  <i_i_glide_lignum>  (163) 
37

>  <i_i_glide_rotatable_bonds>  (163) 
0

>  <r_i_docking_score>  (163) 
-2.65786

>  <r_i_glide_ligand_efficiency>  (163) 
-0.115559

>  <r_i_glide_ligand_efficiency_sa>  (163) 
-0.328634

>  <r_i_glide_ligand_efficiency_ln>  (163) 
-0.642694

>  <r_i_glide_gscore>  (163) 
-2.65786

>  <r_i_glide_lipo>  (163) 
-0.687283

>  <r_i_glide_hbond>  (163) 
0

>  <r_i_glide_metal>  (163) 
-0

>  <r_i_glide_rewards>  (163) 
-1.5186

>  <r_i_glide_evdw>  (163) 
-6.93307

>  <r_i_glide_ecoul>  (163) 
-0.702122

>  <r_i_glide_erotb>  (163) 
0

>  <r_i_glide_esite>  (163) 
0

>  <r_i_glide_emodel>  (163) 
-10.1026

>  <r_i_glide_energy>  (163) 
-7.63519

>  <r_i_glide_einternal>  (163) 
0

>  <r_i_glide_intrahb_reward>  (163) 
-0

>  <i_i_glide_confnum>  (163) 
1

>  <i_i_glide_posenum>  (163) 
3

>  <r_i_glide_eff_state_penalty>  (163) 
0

>  <ligand_id>  (163) 
49

>  <original_smiles>  (163) 
CC1C(=O)OC2(C)CCC3C4(C)CCCC(C)(C)C4CCC13C2

>  <smiles>  (163) 
[H]C([H])([H])C1([H])C(=O)OC2(C([H])([H])[H])C([H])([H])C([H])([H])C3([H])C1(C([H])([H])C([H])([H])C1([H])C(C([H])([H])[H])(C([H])([H])[H])C([H])([H])C([H])([H])C([H])([H])C13C([H])([H])[H])C2([H])[H]

$$$$
51:0:0
     RDKit          3D

 63 69  0  0  1  0  0  0  0  0999 V2000
    4.5900   -5.6837    4.3273 C   0  0  0  0  0  0  0  0  0  0  0  0
    4.1244   -6.1269    2.9244 C   0  0  2  0  0  0  0  0  0  0  0  0
    5.3728   -6.3763    2.0400 C   0  0  0  0  0  0  0  0  0  0  0  0
    6.1930   -5.1066    1.7815 C   0  0  0  0  0  0  0  0  0  0  0  0
    5.3488   -3.9839    1.1551 C   0  0  2  0  0  0  0  0  0  0  0  0
    4.0989   -3.7122    1.9973 C   0  0  0  0  0  0  0  0  0  0  0  0
    3.3077   -5.0023    2.2127 C   0  0  2  0  0  0  0  0  0  0  0  0
    1.9664   -4.7169    2.9104 C   0  0  0  0  0  0  0  0  0  0  0  0
    1.0536   -5.9469    2.8625 C   0  0  0  0  0  0  0  0  0  0  0  0
    1.7797   -7.2550    2.5006 C   0  0  2  0  0  0  0  0  0  0  0  0
    0.9620   -8.4196    2.9775 C   0  0  1  0  0  0  0  0  0  0  0  0
   -0.4675   -8.4816    2.4553 C   0  0  0  0  0  0  0  0  0  0  0  0
   -0.8195   -9.9179    2.7091 C   0  0  0  0  0  0  0  0  0  0  0  0
    0.5064  -10.6406    2.9205 C   0  0  0  0  0  0  0  0  0  0  0  0
    0.6400  -11.8138    3.2744 O   0  0  0  0  0  0  0  0  0  0  0  0
    1.6157   -9.7265    2.5718 C   0  0  2  0  0  0  0  0  0  0  0  0
    2.9524   -9.9385    3.2883 C   0  0  0  0  0  0  0  0  0  0  0  0
    3.8705   -8.7968    2.8268 C   0  0  1  0  0  0  0  0  0  0  0  0
    4.0811   -9.0303    1.4522 O   0  0  0  0  0  0  0  0  0  0  0  0
    3.2139   -7.3966    3.1024 C   0  0  1  0  0  0  0  0  0  0  0  0
    4.9523   -4.4416   -0.1442 O   0  0  0  0  0  0  0  0  0  0  0  0
    5.5712   -3.6826   -1.1718 C   0  0  0  0  0  0  0  0  0  0  0  0
    5.7734   -2.3645   -0.4937 C   0  0  2  0  0  0  0  0  0  0  0  0
    4.5796   -1.3909   -0.3980 C   0  0  0  0  0  0  0  0  0  0  0  0
    4.8233   -0.6890    0.9402 C   0  0  0  0  0  0  0  0  0  0  0  0
    6.1450   -1.3283    1.3973 C   0  0  2  0  0  0  0  0  0  0  0  0
    7.0889   -0.7894    0.4871 O   0  0  0  0  0  0  0  0  0  0  0  0
    6.9335   -1.6466   -0.7502 O   0  0  0  0  0  0  0  0  0  0  0  0
    6.2177   -2.7543    0.8672 C   0  0  1  0  0  0  0  0  0  0  0  0
    5.2010   -6.4563    4.7886 H   0  0  0  0  0  0  0  0  0  0  0  0
    3.7537   -5.4966    5.0006 H   0  0  0  0  0  0  0  0  0  0  0  0
    5.1797   -4.7720    4.3224 H   0  0  0  0  0  0  0  0  0  0  0  0
    6.0152   -7.1386    2.4800 H   0  0  0  0  0  0  0  0  0  0  0  0
    5.0567   -6.7613    1.0668 H   0  0  0  0  0  0  0  0  0  0  0  0
    6.6511   -4.7601    2.7102 H   0  0  0  0  0  0  0  0  0  0  0  0
    7.0221   -5.3651    1.1226 H   0  0  0  0  0  0  0  0  0  0  0  0
    4.3682   -3.2301    2.9370 H   0  0  0  0  0  0  0  0  0  0  0  0
    3.4492   -3.0199    1.4748 H   0  0  0  0  0  0  0  0  0  0  0  0
    3.0645   -5.3502    1.2017 H   0  0  0  0  0  0  0  0  0  0  0  0
    2.1149   -4.3942    3.9342 H   0  0  0  0  0  0  0  0  0  0  0  0
    1.4405   -3.9084    2.4065 H   0  0  0  0  0  0  0  0  0  0  0  0
    0.5210   -6.0594    3.8085 H   0  0  0  0  0  0  0  0  0  0  0  0
    0.2915   -5.8223    2.0908 H   0  0  0  0  0  0  0  0  0  0  0  0
    1.8498   -7.3066    1.4116 H   0  0  0  0  0  0  0  0  0  0  0  0
    0.9234   -8.3530    4.0661 H   0  0  0  0  0  0  0  0  0  0  0  0
   -1.1734   -7.8861    3.0169 H   0  0  0  0  0  0  0  0  0  0  0  0
   -0.5732   -8.2275    1.3893 H   0  0  0  0  0  0  0  0  0  0  0  0
   -1.3346   -9.9883    3.6580 H   0  0  0  0  0  0  0  0  0  0  0  0
   -1.3713  -10.3912    1.8921 H   0  0  0  0  0  0  0  0  0  0  0  0
    1.7658   -9.7418    1.4831 H   0  0  0  0  0  0  0  0  0  0  0  0
    2.8309   -9.9528    4.3704 H   0  0  0  0  0  0  0  0  0  0  0  0
    3.3590  -10.9141    3.0333 H   0  0  0  0  0  0  0  0  0  0  0  0
    4.8248   -8.8903    3.3424 H   0  0  0  0  0  0  0  0  0  0  0  0
    4.2043   -9.9639    1.2940 H   0  0  0  0  0  0  0  0  0  0  0  0
    2.9892   -7.4232    4.1750 H   0  0  0  0  0  0  0  0  0  0  0  0
    6.5707   -4.0456   -1.3686 H   0  0  0  0  0  0  0  0  0  0  0  0
    5.0076   -3.6082   -2.0966 H   0  0  0  0  0  0  0  0  0  0  0  0
    4.6103   -0.7080   -1.2341 H   0  0  0  0  0  0  0  0  0  0  0  0
    3.6215   -1.9051   -0.4160 H   0  0  0  0  0  0  0  0  0  0  0  0
    4.9506    0.3804    0.8194 H   0  0  0  0  0  0  0  0  0  0  0  0
    4.0073   -0.8478    1.6501 H   0  0  0  0  0  0  0  0  0  0  0  0
    6.4097   -1.1480    2.4346 H   0  0  0  0  0  0  0  0  0  0  0  0
    7.2498   -3.0949    0.8905 H   0  0  0  0  0  0  0  0  0  0  0  0
  2  1  1  1
  1 30  1  0
  1 31  1  0
  1 32  1  0
  2  7  1  0
  2 20  1  0
  2  3  1  0
  3  4  1  0
  3 33  1  0
  3 34  1  0
  4  5  1  0
  4 35  1  0
  4 36  1  0
  5 29  1  0
  5  6  1  0
  5 21  1  6
  6  7  1  0
  6 37  1  0
  6 38  1  0
  7  8  1  0
  7 39  1  6
  8  9  1  0
  8 40  1  0
  8 41  1  0
  9 10  1  0
  9 42  1  0
  9 43  1  0
 10 20  1  0
 10 11  1  0
 10 44  1  6
 11 16  1  0
 11 12  1  0
 11 45  1  1
 12 13  1  0
 12 46  1  0
 12 47  1  0
 13 14  1  0
 13 48  1  0
 13 49  1  0
 14 15  2  0
 14 16  1  0
 16 17  1  0
 16 50  1  6
 17 18  1  0
 17 51  1  0
 17 52  1  0
 18 19  1  0
 18 20  1  0
 18 53  1  1
 19 54  1  0
 20 55  1  1
 21 22  1  0
 22 23  1  0
 22 56  1  0
 22 57  1  0
 23 28  1  6
 23 29  1  0
 23 24  1  0
 24 25  1  0
 24 58  1  0
 24 59  1  0
 25 26  1  0
 25 60  1  0
 25 61  1  0
 26 27  1  0
 26 29  1  0
 26 62  1  1
 27 28  1  0
 29 63  1  6
M  END
>  <i_m_ct_stereo_status>  (164) 
1

>  <s_m_source_file>  (164) 
/var/tmp/pbs.5076255.sched01/tmpgskxq70o/44i51uky9l.sdf

>  <i_m_source_file_index>  (164) 
39

>  <i_lp_mmshare_version>  (164) 
48012

>  <i_f3d_flags>  (164) 
0

>  <s_epik_input>  (164) 
W0NIMl0xW0NIMl1DKD1PKVtDQEhdKFtDSDJdW0NAQEhdKFtPSF0pW0NAQEhdMjMpW0NASF0xW0NASF0zW0NIMl1bQ0gyXVtDQEBIXShbQ0gyXTQpW0NAXTIoW0NIM10pW0NIMl1bQ0gyXVtDQF00NVtDQEhdNltDQEBdNyhbQ0gyXU81KVtDSDJdW0NIMl1bQ0BASF02T083

>  <s_epik_cmdline>  (164) 
J2VwaWtfcHl0aG9uJywgJy1waHQnLCAnMi4wJywgJy1waCcsICc3LjAnLCAnLXRuJywgJzgnLCAnLW1hJywgJzIwMCcsICctaW1hZScsICc8aW5maWxlLm1hZT4nLCAnLW9tYWUnLCAnPG91dGZpbGUubWFlPic=

>  <r_lp_tautomer_probability>  (164) 
1

>  <r_epik_Ionization_Penalty>  (164) 
1.20475e-06

>  <r_epik_Ionization_Penalty_Charging>  (164) 
0

>  <r_epik_Ionization_Penalty_Neutral>  (164) 
1.20475e-06

>  <r_epik_State_Penalty>  (164) 
-0

>  <r_epik_Charging_Adjusted_Penalty>  (164) 
0

>  <i_epik_Tot_Q>  (164) 
0

>  <i_epik_Tot_abs_Q>  (164) 
0

>  <s_lp_Force_Field>  (164) 
OPLS3e

>  <r_lp_Energy>  (164) 
69.8312

>  <b_lp_Chiralities_Consistent>  (164) 
1

>  <s_lp_Variant>  (164) 
51:0-1

>  <s_i_glide_gridfile>  (164) 
pfpi4k_grid

>  <i_i_glide_lignum>  (164) 
39

>  <i_i_glide_rotatable_bonds>  (164) 
1

>  <r_i_docking_score>  (164) 
-3.34338

>  <r_i_glide_ligand_efficiency>  (164) 
-0.115289

>  <r_i_glide_ligand_efficiency_sa>  (164) 
-0.354205

>  <r_i_glide_ligand_efficiency_ln>  (164) 
-0.76555

>  <r_i_glide_gscore>  (164) 
-3.34338

>  <r_i_glide_lipo>  (164) 
-0.714199

>  <r_i_glide_hbond>  (164) 
-0.205922

>  <r_i_glide_metal>  (164) 
-0

>  <r_i_glide_rewards>  (164) 
-0.779383

>  <r_i_glide_evdw>  (164) 
-23.7672

>  <r_i_glide_ecoul>  (164) 
-3.03682

>  <r_i_glide_erotb>  (164) 
0

>  <r_i_glide_esite>  (164) 
0

>  <r_i_glide_emodel>  (164) 
-31.3422

>  <r_i_glide_energy>  (164) 
-26.804

>  <r_i_glide_einternal>  (164) 
0.806721

>  <r_i_glide_intrahb_reward>  (164) 
-0

>  <i_i_glide_confnum>  (164) 
1

>  <i_i_glide_posenum>  (164) 
10

>  <r_i_glide_eff_state_penalty>  (164) 
0

>  <ligand_id>  (164) 
51

>  <original_smiles>  (164) 
CC12CCC3(CC1CCC1C4CCC(=O)C4CC(O)C12)OCC12CCC(OO1)C32

>  <smiles>  (164) 
[H]OC1([H])C([H])([H])C2([H])C(=O)C([H])([H])C([H])([H])C2([H])C2([H])C([H])([H])C([H])([H])C3([H])C([H])([H])C4(OC([H])([H])C56OOC([H])(C([H])([H])C5([H])[H])C64[H])C([H])([H])C([H])([H])C3(C([H])([H])[H])C12[H]

$$$$
51:0:1
     RDKit          3D

 63 69  0  0  1  0  0  0  0  0999 V2000
    6.8112   -6.1302    4.0300 C   0  0  0  0  0  0  0  0  0  0  0  0
    5.8739   -6.6748    2.9192 C   0  0  2  0  0  0  0  0  0  0  0  0
    6.6268   -6.5683    1.5641 C   0  0  0  0  0  0  0  0  0  0  0  0
    6.9466   -5.1231    1.1185 C   0  0  0  0  0  0  0  0  0  0  0  0
    5.6895   -4.2286    1.0404 C   0  0  2  0  0  0  0  0  0  0  0  0
    4.9062   -4.3240    2.3711 C   0  0  0  0  0  0  0  0  0  0  0  0
    4.6017   -5.7888    2.7608 C   0  0  2  0  0  0  0  0  0  0  0  0
    3.6782   -5.8856    3.9858 C   0  0  0  0  0  0  0  0  0  0  0  0
    3.1546   -7.3152    4.2074 C   0  0  0  0  0  0  0  0  0  0  0  0
    3.9246   -8.4207    3.4459 C   0  0  2  0  0  0  0  0  0  0  0  0
    3.7064   -9.7913    4.1215 C   0  0  1  0  0  0  0  0  0  0  0  0
    2.2719  -10.3213    4.3079 C   0  0  0  0  0  0  0  0  0  0  0  0
    2.4321  -11.8458    4.4881 C   0  0  0  0  0  0  0  0  0  0  0  0
    3.8220  -12.1413    3.9350 C   0  0  0  0  0  0  0  0  0  0  0  0
    4.4053  -13.2224    3.9932 O   0  0  0  0  0  0  0  0  0  0  0  0
    4.3940  -10.8847    3.3162 C   0  0  2  0  0  0  0  0  0  0  0  0
    5.9167  -10.6913    3.3102 C   0  0  0  0  0  0  0  0  0  0  0  0
    6.2304   -9.3303    2.6469 C   0  0  1  0  0  0  0  0  0  0  0  0
    5.8989   -9.4712    1.2777 O   0  0  0  0  0  0  0  0  0  0  0  0
    5.4620   -8.1500    3.3353 C   0  0  1  0  0  0  0  0  0  0  0  0
    4.8747   -4.7511   -0.0253 O   0  0  0  0  0  0  0  0  0  0  0  0
    4.8113   -3.8583   -1.1428 C   0  0  0  0  0  0  0  0  0  0  0  0
    4.9793   -2.5072   -0.4823 C   0  0  2  0  0  0  0  0  0  0  0  0
    3.7524   -1.9428    0.2646 C   0  0  0  0  0  0  0  0  0  0  0  0
    4.3888   -1.2065    1.4513 C   0  0  0  0  0  0  0  0  0  0  0  0
    5.8873   -1.4608    1.2286 C   0  0  2  0  0  0  0  0  0  0  0  0
    6.2173   -0.6619    0.0884 O   0  0  0  0  0  0  0  0  0  0  0  0
    5.6426   -1.4274   -1.0991 O   0  0  0  0  0  0  0  0  0  0  0  0
    6.0403   -2.8058    0.5255 C   0  0  1  0  0  0  0  0  0  0  0  0
    7.7404   -6.7004    4.0742 H   0  0  0  0  0  0  0  0  0  0  0  0
    6.3571   -6.1705    5.0201 H   0  0  0  0  0  0  0  0  0  0  0  0
    7.0786   -5.0921    3.8698 H   0  0  0  0  0  0  0  0  0  0  0  0
    7.5547   -7.1407    1.5836 H   0  0  0  0  0  0  0  0  0  0  0  0
    6.0066   -7.0071    0.7848 H   0  0  0  0  0  0  0  0  0  0  0  0
    7.6823   -4.6722    1.7862 H   0  0  0  0  0  0  0  0  0  0  0  0
    7.4288   -5.1617    0.1409 H   0  0  0  0  0  0  0  0  0  0  0  0
    5.4500   -3.8102    3.1638 H   0  0  0  0  0  0  0  0  0  0  0  0
    3.9528   -3.8136    2.2877 H   0  0  0  0  0  0  0  0  0  0  0  0
    4.0290   -6.1858    1.9184 H   0  0  0  0  0  0  0  0  0  0  0  0
    4.1991   -5.5444    4.8777 H   0  0  0  0  0  0  0  0  0  0  0  0
    2.8229   -5.2160    3.8656 H   0  0  0  0  0  0  0  0  0  0  0  0
    3.1255   -7.5265    5.2776 H   0  0  0  0  0  0  0  0  0  0  0  0
    2.1167   -7.3607    3.8704 H   0  0  0  0  0  0  0  0  0  0  0  0
    3.5204   -8.4629    2.4335 H   0  0  0  0  0  0  0  0  0  0  0  0
    4.1602   -9.7479    5.1151 H   0  0  0  0  0  0  0  0  0  0  0  0
    1.7702   -9.8688    5.1656 H   0  0  0  0  0  0  0  0  0  0  0  0
    1.6682  -10.1151    3.4217 H   0  0  0  0  0  0  0  0  0  0  0  0
    2.3971  -12.1365    5.5408 H   0  0  0  0  0  0  0  0  0  0  0  0
    1.6511  -12.3860    3.9505 H   0  0  0  0  0  0  0  0  0  0  0  0
    4.0121  -10.8686    2.2957 H   0  0  0  0  0  0  0  0  0  0  0  0
    6.3030  -10.7150    4.3291 H   0  0  0  0  0  0  0  0  0  0  0  0
    6.4028  -11.5123    2.7826 H   0  0  0  0  0  0  0  0  0  0  0  0
    7.3036   -9.1502    2.7157 H   0  0  0  0  0  0  0  0  0  0  0  0
    5.1176  -10.0078    1.2070 H   0  0  0  0  0  0  0  0  0  0  0  0
    5.7753   -8.2359    4.3763 H   0  0  0  0  0  0  0  0  0  0  0  0
    5.6459   -4.0607   -1.8141 H   0  0  0  0  0  0  0  0  0  0  0  0
    3.8798   -3.9541   -1.6988 H   0  0  0  0  0  0  0  0  0  0  0  0
    3.1714   -1.2757   -0.3734 H   0  0  0  0  0  0  0  0  0  0  0  0
    3.0846   -2.7387    0.6021 H   0  0  0  0  0  0  0  0  0  0  0  0
    4.1573   -0.1401    1.4365 H   0  0  0  0  0  0  0  0  0  0  0  0
    4.0493   -1.6108    2.4073 H   0  0  0  0  0  0  0  0  0  0  0  0
    6.5321   -1.2700    2.0889 H   0  0  0  0  0  0  0  0  0  0  0  0
    7.0219   -2.8559    0.0470 H   0  0  0  0  0  0  0  0  0  0  0  0
  2  1  1  1
  1 30  1  0
  1 31  1  0
  1 32  1  0
  2  7  1  0
  2 20  1  0
  2  3  1  0
  3  4  1  0
  3 33  1  0
  3 34  1  0
  4  5  1  0
  4 35  1  0
  4 36  1  0
  5 29  1  0
  5  6  1  0
  5 21  1  6
  6  7  1  0
  6 37  1  0
  6 38  1  0
  7  8  1  0
  7 39  1  6
  8  9  1  0
  8 40  1  0
  8 41  1  0
  9 10  1  0
  9 42  1  0
  9 43  1  0
 10 20  1  0
 10 11  1  0
 10 44  1  6
 11 16  1  0
 11 12  1  0
 11 45  1  1
 12 13  1  0
 12 46  1  0
 12 47  1  0
 13 14  1  0
 13 48  1  0
 13 49  1  0
 14 15  2  0
 14 16  1  0
 16 17  1  0
 16 50  1  6
 17 18  1  0
 17 51  1  0
 17 52  1  0
 18 19  1  0
 18 20  1  0
 18 53  1  6
 19 54  1  0
 20 55  1  1
 21 22  1  0
 22 23  1  0
 22 56  1  0
 22 57  1  0
 23 28  1  6
 23 29  1  0
 23 24  1  0
 24 25  1  0
 24 58  1  0
 24 59  1  0
 25 26  1  0
 25 60  1  0
 25 61  1  0
 26 27  1  0
 26 29  1  0
 26 62  1  1
 27 28  1  0
 29 63  1  6
M  END
>  <i_m_ct_stereo_status>  (165) 
1

>  <s_m_source_file>  (165) 
/var/tmp/pbs.5076255.sched01/tmpgskxq70o/44i51uky9l.sdf

>  <i_m_source_file_index>  (165) 
39

>  <i_lp_mmshare_version>  (165) 
48012

>  <i_f3d_flags>  (165) 
0

>  <s_epik_input>  (165) 
W0NIMl0xW0NIMl1DKD1PKVtDQEhdKFtDSDJdW0NAQEhdKFtPSF0pW0NAQEhdMjMpW0NASF0xW0NASF0zW0NIMl1bQ0gyXVtDQEBIXShbQ0gyXTQpW0NAXTIoW0NIM10pW0NIMl1bQ0gyXVtDQF00NVtDQEhdNltDQEBdNyhbQ0gyXU81KVtDSDJdW0NIMl1bQ0BASF02T083

>  <s_epik_cmdline>  (165) 
J2VwaWtfcHl0aG9uJywgJy1waHQnLCAnMi4wJywgJy1waCcsICc3LjAnLCAnLXRuJywgJzgnLCAnLW1hJywgJzIwMCcsICctaW1hZScsICc8aW5maWxlLm1hZT4nLCAnLW9tYWUnLCAnPG91dGZpbGUubWFlPic=

>  <r_lp_tautomer_probability>  (165) 
1

>  <r_epik_Ionization_Penalty>  (165) 
1.20475e-06

>  <r_epik_Ionization_Penalty_Charging>  (165) 
0

>  <r_epik_Ionization_Penalty_Neutral>  (165) 
1.20475e-06

>  <r_epik_State_Penalty>  (165) 
-0

>  <r_epik_Charging_Adjusted_Penalty>  (165) 
0

>  <i_epik_Tot_Q>  (165) 
0

>  <i_epik_Tot_abs_Q>  (165) 
0

>  <s_lp_Force_Field>  (165) 
OPLS3e

>  <r_lp_Energy>  (165) 
69.8312

>  <b_lp_Chiralities_Consistent>  (165) 
1

>  <s_lp_Variant>  (165) 
51:0-1

>  <s_i_glide_gridfile>  (165) 
pfpi4k_grid

>  <i_i_glide_lignum>  (165) 
39

>  <i_i_glide_rotatable_bonds>  (165) 
1

>  <r_i_docking_score>  (165) 
-3.12369

>  <r_i_glide_ligand_efficiency>  (165) 
-0.107713

>  <r_i_glide_ligand_efficiency_sa>  (165) 
-0.33093

>  <r_i_glide_ligand_efficiency_ln>  (165) 
-0.715245

>  <r_i_glide_gscore>  (165) 
-3.12369

>  <r_i_glide_lipo>  (165) 
-0.548295

>  <r_i_glide_hbond>  (165) 
-0.0334756

>  <r_i_glide_metal>  (165) 
-0

>  <r_i_glide_rewards>  (165) 
-0.664611

>  <r_i_glide_evdw>  (165) 
-27.4277

>  <r_i_glide_ecoul>  (165) 
-3.17238

>  <r_i_glide_erotb>  (165) 
0

>  <r_i_glide_esite>  (165) 
-0.030066

>  <r_i_glide_emodel>  (165) 
-36.3732

>  <r_i_glide_energy>  (165) 
-30.6

>  <r_i_glide_einternal>  (165) 
0.603618

>  <r_i_glide_intrahb_reward>  (165) 
-0

>  <i_i_glide_confnum>  (165) 
2

>  <i_i_glide_posenum>  (165) 
2

>  <r_i_glide_eff_state_penalty>  (165) 
0

>  <ligand_id>  (165) 
51

>  <original_smiles>  (165) 
CC12CCC3(CC1CCC1C4CCC(=O)C4CC(O)C12)OCC12CCC(OO1)C32

>  <smiles>  (165) 
[H]OC1([H])C([H])([H])C2([H])C(=O)C([H])([H])C([H])([H])C2([H])C2([H])C([H])([H])C([H])([H])C3([H])C([H])([H])C4(OC([H])([H])C56OOC([H])(C([H])([H])C5([H])[H])C64[H])C([H])([H])C([H])([H])C3(C([H])([H])[H])C12[H]

$$$$
51:0:2
     RDKit          3D

 63 69  0  0  1  0  0  0  0  0999 V2000
    2.0732   -2.5860    2.5426 C   0  0  0  0  0  0  0  0  0  0  0  0
    2.6984   -4.0151    2.5891 C   0  0  2  0  0  0  0  0  0  0  0  0
    3.9205   -3.9239    3.5320 C   0  0  0  0  0  0  0  0  0  0  0  0
    5.0216   -2.9996    2.9938 C   0  0  0  0  0  0  0  0  0  0  0  0
    5.5392   -3.4128    1.5975 C   0  0  2  0  0  0  0  0  0  0  0  0
    4.3375   -3.5155    0.6405 C   0  0  0  0  0  0  0  0  0  0  0  0
    3.2844   -4.4734    1.2171 C   0  0  2  0  0  0  0  0  0  0  0  0
    2.2131   -4.7768    0.1718 C   0  0  0  0  0  0  0  0  0  0  0  0
    1.2709   -5.9073    0.6188 C   0  0  0  0  0  0  0  0  0  0  0  0
    1.3428   -6.2517    2.1177 C   0  0  2  0  0  0  0  0  0  0  0  0
    0.0452   -6.9429    2.5716 C   0  0  1  0  0  0  0  0  0  0  0  0
   -0.4303   -8.2048    1.8557 C   0  0  0  0  0  0  0  0  0  0  0  0
   -1.3587   -8.9563    2.8370 C   0  0  0  0  0  0  0  0  0  0  0  0
   -0.8922   -8.3761    4.1511 C   0  0  0  0  0  0  0  0  0  0  0  0
   -1.3332   -8.6571    5.2660 O   0  0  0  0  0  0  0  0  0  0  0  0
    0.2293   -7.4144    3.9965 C   0  0  2  0  0  0  0  0  0  0  0  0
    0.3329   -6.2323    4.9661 C   0  0  0  0  0  0  0  0  0  0  0  0
    1.5906   -5.4338    4.5837 C   0  0  1  0  0  0  0  0  0  0  0  0
    2.6954   -6.2619    4.9045 O   0  0  0  0  0  0  0  0  0  0  0  0
    1.5834   -5.0287    3.0655 C   0  0  1  0  0  0  0  0  0  0  0  0
    6.1736   -4.7180    1.7113 O   0  0  0  0  0  0  0  0  0  0  0  0
    7.5819   -4.6803    1.4296 C   0  0  0  0  0  0  0  0  0  0  0  0
    7.6728   -3.4212    0.5835 C   0  0  2  0  0  0  0  0  0  0  0  0
    7.2979   -3.5958   -0.8708 C   0  0  0  0  0  0  0  0  0  0  0  0
    6.6625   -2.3051   -1.3230 C   0  0  0  0  0  0  0  0  0  0  0  0
    6.7423   -1.5144   -0.0212 C   0  0  2  0  0  0  0  0  0  0  0  0
    8.1517   -1.2534    0.0715 O   0  0  0  0  0  0  0  0  0  0  0  0
    8.7900   -2.5820    0.4984 O   0  0  0  0  0  0  0  0  0  0  0  0
    6.6750   -2.4740    1.1549 C   0  0  1  0  0  0  0  0  0  0  0  0
    1.7515   -2.2685    3.5369 H   0  0  0  0  0  0  0  0  0  0  0  0
    1.2037   -2.5346    1.9003 H   0  0  0  0  0  0  0  0  0  0  0  0
    2.7460   -1.8215    2.1577 H   0  0  0  0  0  0  0  0  0  0  0  0
    3.6380   -3.5893    4.5335 H   0  0  0  0  0  0  0  0  0  0  0  0
    4.3750   -4.9068    3.6388 H   0  0  0  0  0  0  0  0  0  0  0  0
    4.6969   -1.9603    2.9873 H   0  0  0  0  0  0  0  0  0  0  0  0
    5.8193   -3.0399    3.7182 H   0  0  0  0  0  0  0  0  0  0  0  0
    3.9150   -2.5269    0.4333 H   0  0  0  0  0  0  0  0  0  0  0  0
    4.6176   -3.9239   -0.3296 H   0  0  0  0  0  0  0  0  0  0  0  0
    3.8094   -5.4148    1.3695 H   0  0  0  0  0  0  0  0  0  0  0  0
    1.7527   -3.8270   -0.0327 H   0  0  0  0  0  0  0  0  0  0  0  0
    2.7009   -5.0355   -0.7737 H   0  0  0  0  0  0  0  0  0  0  0  0
    0.2435   -5.8258    0.2512 H   0  0  0  0  0  0  0  0  0  0  0  0
    1.5471   -6.8172    0.1149 H   0  0  0  0  0  0  0  0  0  0  0  0
    2.1736   -6.9535    2.2404 H   0  0  0  0  0  0  0  0  0  0  0  0
   -0.7791   -6.2534    2.5487 H   0  0  0  0  0  0  0  0  0  0  0  0
   -0.9269   -8.0001    0.9054 H   0  0  0  0  0  0  0  0  0  0  0  0
    0.4424   -8.8447    1.6923 H   0  0  0  0  0  0  0  0  0  0  0  0
   -2.4199   -8.7863    2.6401 H   0  0  0  0  0  0  0  0  0  0  0  0
   -1.1791  -10.0314    2.8103 H   0  0  0  0  0  0  0  0  0  0  0  0
    1.1113   -8.0558    4.0755 H   0  0  0  0  0  0  0  0  0  0  0  0
   -0.5606   -5.6115    4.8988 H   0  0  0  0  0  0  0  0  0  0  0  0
    0.3686   -6.5847    5.9999 H   0  0  0  0  0  0  0  0  0  0  0  0
    1.6405   -4.5418    5.2103 H   0  0  0  0  0  0  0  0  0  0  0  0
    2.6365   -7.0538    4.3862 H   0  0  0  0  0  0  0  0  0  0  0  0
    0.6602   -4.4623    2.9735 H   0  0  0  0  0  0  0  0  0  0  0  0
    8.1553   -4.6107    2.3458 H   0  0  0  0  0  0  0  0  0  0  0  0
    7.9644   -5.5941    0.9606 H   0  0  0  0  0  0  0  0  0  0  0  0
    8.1751   -3.8412   -1.4730 H   0  0  0  0  0  0  0  0  0  0  0  0
    6.5381   -4.3637   -0.8893 H   0  0  0  0  0  0  0  0  0  0  0  0
    7.2438   -1.8856   -2.1545 H   0  0  0  0  0  0  0  0  0  0  0  0
    5.6356   -2.4773   -1.6588 H   0  0  0  0  0  0  0  0  0  0  0  0
    6.1356   -0.6198    0.0135 H   0  0  0  0  0  0  0  0  0  0  0  0
    7.0009   -1.9094    2.0007 H   0  0  0  0  0  0  0  0  0  0  0  0
  2  1  1  6
  1 30  1  0
  1 31  1  0
  1 32  1  0
  2  7  1  0
  2 20  1  0
  2  3  1  0
  3  4  1  0
  3 33  1  0
  3 34  1  0
  4  5  1  0
  4 35  1  0
  4 36  1  0
  5 29  1  0
  5  6  1  0
  5 21  1  1
  6  7  1  0
  6 37  1  0
  6 38  1  0
  7  8  1  0
  7 39  1  1
  8  9  1  0
  8 40  1  0
  8 41  1  0
  9 10  1  0
  9 42  1  0
  9 43  1  0
 10 20  1  0
 10 11  1  0
 10 44  1  6
 11 16  1  0
 11 12  1  0
 11 45  1  1
 12 13  1  0
 12 46  1  0
 12 47  1  0
 13 14  1  0
 13 48  1  0
 13 49  1  0
 14 15  2  0
 14 16  1  0
 16 17  1  0
 16 50  1  6
 17 18  1  0
 17 51  1  0
 17 52  1  0
 18 19  1  0
 18 20  1  0
 18 53  1  1
 19 54  1  0
 20 55  1  1
 21 22  1  0
 22 23  1  0
 22 56  1  0
 22 57  1  0
 23 28  1  6
 23 29  1  0
 23 24  1  0
 24 25  1  0
 24 58  1  0
 24 59  1  0
 25 26  1  0
 25 60  1  0
 25 61  1  0
 26 27  1  0
 26 29  1  0
 26 62  1  1
 27 28  1  0
 29 63  1  1
M  END
>  <i_m_ct_stereo_status>  (166) 
1

>  <s_m_source_file>  (166) 
/var/tmp/pbs.5076255.sched01/tmpgskxq70o/44i51uky9l.sdf

>  <i_m_source_file_index>  (166) 
39

>  <i_lp_mmshare_version>  (166) 
48012

>  <i_f3d_flags>  (166) 
0

>  <s_epik_input>  (166) 
W0NIMl0xW0NIMl1DKD1PKVtDQEhdKFtDSDJdW0NAQEhdKFtPSF0pW0NAQEhdMjMpW0NASF0xW0NASF0zW0NIMl1bQ0gyXVtDQEBIXShbQ0gyXTQpW0NAXTIoW0NIM10pW0NIMl1bQ0gyXVtDQF00NVtDQEhdNltDQEBdNyhbQ0gyXU81KVtDSDJdW0NIMl1bQ0BASF02T083

>  <s_epik_cmdline>  (166) 
J2VwaWtfcHl0aG9uJywgJy1waHQnLCAnMi4wJywgJy1waCcsICc3LjAnLCAnLXRuJywgJzgnLCAnLW1hJywgJzIwMCcsICctaW1hZScsICc8aW5maWxlLm1hZT4nLCAnLW9tYWUnLCAnPG91dGZpbGUubWFlPic=

>  <r_lp_tautomer_probability>  (166) 
1

>  <r_epik_Ionization_Penalty>  (166) 
1.20475e-06

>  <r_epik_Ionization_Penalty_Charging>  (166) 
0

>  <r_epik_Ionization_Penalty_Neutral>  (166) 
1.20475e-06

>  <r_epik_State_Penalty>  (166) 
-0

>  <r_epik_Charging_Adjusted_Penalty>  (166) 
0

>  <i_epik_Tot_Q>  (166) 
0

>  <i_epik_Tot_abs_Q>  (166) 
0

>  <s_lp_Force_Field>  (166) 
OPLS3e

>  <r_lp_Energy>  (166) 
69.8312

>  <b_lp_Chiralities_Consistent>  (166) 
1

>  <s_lp_Variant>  (166) 
51:0-1

>  <s_i_glide_gridfile>  (166) 
pfpi4k_grid

>  <i_i_glide_lignum>  (166) 
39

>  <i_i_glide_rotatable_bonds>  (166) 
1

>  <r_i_docking_score>  (166) 
-1.80055

>  <r_i_glide_ligand_efficiency>  (166) 
-0.062088

>  <r_i_glide_ligand_efficiency_sa>  (166) 
-0.190754

>  <r_i_glide_ligand_efficiency_ln>  (166) 
-0.412281

>  <r_i_glide_gscore>  (166) 
-1.80055

>  <r_i_glide_lipo>  (166) 
-0.585631

>  <r_i_glide_hbond>  (166) 
-0.0604748

>  <r_i_glide_metal>  (166) 
-0

>  <r_i_glide_rewards>  (166) 
-0.664611

>  <r_i_glide_evdw>  (166) 
-8.66213

>  <r_i_glide_ecoul>  (166) 
0.118985

>  <r_i_glide_erotb>  (166) 
0

>  <r_i_glide_esite>  (166) 
-0.0745776

>  <r_i_glide_emodel>  (166) 
-11.1654

>  <r_i_glide_energy>  (166) 
-8.54314

>  <r_i_glide_einternal>  (166) 
0.00861326

>  <r_i_glide_intrahb_reward>  (166) 
-0

>  <i_i_glide_confnum>  (166) 
1

>  <i_i_glide_posenum>  (166) 
9

>  <r_i_glide_eff_state_penalty>  (166) 
0

>  <ligand_id>  (166) 
51

>  <original_smiles>  (166) 
CC12CCC3(CC1CCC1C4CCC(=O)C4CC(O)C12)OCC12CCC(OO1)C32

>  <smiles>  (166) 
[H]OC1([H])C([H])([H])C2([H])C(=O)C([H])([H])C([H])([H])C2([H])C2([H])C([H])([H])C([H])([H])C3([H])C([H])([H])C4(OC([H])([H])C56OOC([H])(C([H])([H])C5([H])[H])C64[H])C([H])([H])C([H])([H])C3(C([H])([H])[H])C12[H]

$$$$
52:0:0
     RDKit          3D

 38 44  0  0  1  0  0  0  0  0999 V2000
    1.9489   -2.2574   -3.6068 C   0  0  0  0  0  0  0  0  0  0  0  0
    2.7149   -3.4624   -3.9211 C   0  0  0  0  0  0  0  0  0  0  0  0
    4.1936   -3.1630   -3.6224 C   0  0  1  0  0  0  0  0  0  0  0  0
    4.2867   -1.6755   -3.8608 C   0  0  1  0  0  0  0  0  0  0  0  0
    2.9025   -1.1167   -3.7493 C   0  0  2  0  0  0  0  0  0  0  0  0
    3.9621   -0.7203   -2.7487 C   0  0  1  0  0  0  0  0  0  0  0  0
    4.2873   -1.2419   -1.3440 C   0  0  2  0  0  0  0  0  0  0  0  0
    5.7126   -1.0198   -1.2378 O   0  0  0  0  0  0  0  0  0  0  0  0
    6.6043   -2.1162   -1.4760 C   0  0  1  0  0  0  0  0  0  0  0  0
    7.0227   -2.5789   -0.0893 C   0  0  2  0  0  0  0  0  0  0  0  0
    8.3408   -3.2749    0.2167 C   0  0  0  0  0  0  0  0  0  0  0  0
    8.0088   -4.6654    0.1229 O   0  0  0  0  0  0  0  0  0  0  0  0
    6.6181   -4.8727    0.4263 C   0  0  0  0  0  0  0  0  0  0  0  0
    5.9671   -3.6445   -0.1890 C   0  0  1  0  0  0  0  0  0  0  0  0
    4.5272   -3.3160    0.2277 C   0  0  0  0  0  0  0  0  0  0  0  0
    3.8829   -2.7213   -1.0637 C   0  0  2  0  0  0  0  0  0  0  0  0
    4.5342   -3.5559   -2.1604 C   0  0  2  0  0  0  0  0  0  0  0  0
    5.9628   -3.4558   -1.7117 C   0  0  1  0  0  0  0  0  0  0  0  0
    1.5061   -2.2788   -2.6124 H   0  0  0  0  0  0  0  0  0  0  0  0
    1.1300   -2.1799   -4.3214 H   0  0  0  0  0  0  0  0  0  0  0  0
    2.2248   -4.2565   -3.3410 H   0  0  0  0  0  0  0  0  0  0  0  0
    2.5314   -3.5111   -4.9880 H   0  0  0  0  0  0  0  0  0  0  0  0
    4.8281   -3.7048   -4.3285 H   0  0  0  0  0  0  0  0  0  0  0  0
    4.8786   -1.3145   -4.7046 H   0  0  0  0  0  0  0  0  0  0  0  0
    2.6087   -0.3847   -4.5030 H   0  0  0  0  0  0  0  0  0  0  0  0
    4.2620    0.3038   -2.9014 H   0  0  0  0  0  0  0  0  0  0  0  0
    3.8001   -0.5916   -0.6210 H   0  0  0  0  0  0  0  0  0  0  0  0
    7.4688   -1.9261   -2.1229 H   0  0  0  0  0  0  0  0  0  0  0  0
    6.7478   -1.8407    0.6658 H   0  0  0  0  0  0  0  0  0  0  0  0
    9.1459   -2.9887   -0.4689 H   0  0  0  0  0  0  0  0  0  0  0  0
    8.6583   -3.0646    1.2372 H   0  0  0  0  0  0  0  0  0  0  0  0
    6.2775   -5.8050   -0.0248 H   0  0  0  0  0  0  0  0  0  0  0  0
    6.4617   -4.9301    1.5034 H   0  0  0  0  0  0  0  0  0  0  0  0
    4.0043   -4.2303    0.5104 H   0  0  0  0  0  0  0  0  0  0  0  0
    4.4739   -2.6243    1.0674 H   0  0  0  0  0  0  0  0  0  0  0  0
    2.7976   -2.8530   -1.0315 H   0  0  0  0  0  0  0  0  0  0  0  0
    4.2363   -4.5884   -2.0169 H   0  0  0  0  0  0  0  0  0  0  0  0
    6.6258   -4.0890   -2.2773 H   0  0  0  0  0  0  0  0  0  0  0  0
  1  5  1  0
  1  2  1  0
  1 19  1  0
  1 20  1  0
  2  3  1  0
  2 21  1  0
  2 22  1  0
  3 17  1  0
  3  4  1  0
  3 23  1  6
  4  6  1  0
  4  5  1  0
  4 24  1  6
  5  6  1  0
  5 25  1  6
  6  7  1  0
  6 26  1  6
  7 16  1  0
  7  8  1  0
  7 27  1  1
  8  9  1  0
  9 18  1  0
  9 10  1  0
  9 28  1  6
 10 14  1  0
 10 11  1  0
 10 29  1  1
 11 12  1  0
 11 30  1  0
 11 31  1  0
 12 13  1  0
 14 13  1  6
 13 32  1  0
 13 33  1  0
 14 18  1  0
 14 15  1  0
 15 16  1  0
 15 34  1  0
 15 35  1  0
 16 17  1  0
 16 36  1  1
 17 18  1  0
 17 37  1  1
 18 38  1  6
M  END
>  <i_m_ct_stereo_status>  (167) 
1

>  <s_m_source_file>  (167) 
/var/tmp/pbs.5076255.sched01/tmpgskxq70o/44i51uky9l.sdf

>  <i_m_source_file_index>  (167) 
40

>  <i_lp_mmshare_version>  (167) 
48012

>  <i_f3d_flags>  (167) 
0

>  <s_epik_input>  (167) 
W0NIMl0xW0NASF0yW0NAQEhdKE8zKVtDQEBIXTRbQ0BIXShbQ0gyXVtDSDJdNSlbQ0BASF00W0NASF01W0NASF0yW0NASF02W0NAQEhdM1tDQEBIXShbQ0BAXTE2NylbQ0gyXU9bQ0gyXTc=

>  <s_epik_cmdline>  (167) 
J2VwaWtfcHl0aG9uJywgJy1waHQnLCAnMi4wJywgJy1waCcsICc3LjAnLCAnLXRuJywgJzgnLCAnLW1hJywgJzIwMCcsICctaW1hZScsICc8aW5maWxlLm1hZT4nLCAnLW9tYWUnLCAnPG91dGZpbGUubWFlPic=

>  <r_lp_tautomer_probability>  (167) 
1

>  <r_epik_Ionization_Penalty>  (167) 
5.17102e-11

>  <r_epik_Ionization_Penalty_Charging>  (167) 
0

>  <r_epik_Ionization_Penalty_Neutral>  (167) 
5.17102e-11

>  <r_epik_State_Penalty>  (167) 
-0

>  <r_epik_Charging_Adjusted_Penalty>  (167) 
0

>  <i_epik_Tot_Q>  (167) 
0

>  <i_epik_Tot_abs_Q>  (167) 
0

>  <s_lp_Force_Field>  (167) 
OPLS3e

>  <r_lp_Energy>  (167) 
76.2203

>  <b_lp_Chiralities_Consistent>  (167) 
1

>  <s_lp_Variant>  (167) 
52:0-1

>  <s_i_glide_gridfile>  (167) 
pfpi4k_grid

>  <i_i_glide_lignum>  (167) 
40

>  <i_i_glide_rotatable_bonds>  (167) 
0

>  <r_i_docking_score>  (167) 
-3.88643

>  <r_i_glide_ligand_efficiency>  (167) 
-0.215913

>  <r_i_glide_ligand_efficiency_sa>  (167) 
-0.565852

>  <r_i_glide_ligand_efficiency_ln>  (167) 
-0.998988

>  <r_i_glide_gscore>  (167) 
-3.88643

>  <r_i_glide_lipo>  (167) 
-1.46657

>  <r_i_glide_hbond>  (167) 
-0.0500812

>  <r_i_glide_metal>  (167) 
-0

>  <r_i_glide_rewards>  (167) 
-1.74321

>  <r_i_glide_evdw>  (167) 
-8.77449

>  <r_i_glide_ecoul>  (167) 
-1.25228

>  <r_i_glide_erotb>  (167) 
0

>  <r_i_glide_esite>  (167) 
0

>  <r_i_glide_emodel>  (167) 
-12.2216

>  <r_i_glide_energy>  (167) 
-10.0268

>  <r_i_glide_einternal>  (167) 
0

>  <r_i_glide_intrahb_reward>  (167) 
-0

>  <i_i_glide_confnum>  (167) 
2

>  <i_i_glide_posenum>  (167) 
7

>  <r_i_glide_eff_state_penalty>  (167) 
0

>  <ligand_id>  (167) 
52

>  <original_smiles>  (167) 
C1CC2C3C1C3C1OC3C4COCC45CC1C2C35

>  <smiles>  (167) 
[H]C1([H])OC([H])([H])C23C([H])([H])C4([H])C5([H])OC([H])(C12[H])C3([H])C4([H])C1([H])C([H])([H])C([H])([H])C2([H])C5([H])C21[H]

$$$$
52:0:1
     RDKit          3D

 38 44  0  0  1  0  0  0  0  0999 V2000
    5.5531   -4.3043    2.5501 C   0  0  0  0  0  0  0  0  0  0  0  0
    6.6185   -3.9246    1.5068 C   0  0  0  0  0  0  0  0  0  0  0  0
    5.9736   -4.1346    0.1216 C   0  0  1  0  0  0  0  0  0  0  0  0
    4.9667   -5.2242    0.3595 C   0  0  1  0  0  0  0  0  0  0  0  0
    4.6212   -5.2436    1.8292 C   0  0  2  0  0  0  0  0  0  0  0  0
    3.5770   -4.8878    0.7783 C   0  0  1  0  0  0  0  0  0  0  0  0
    3.0640   -3.5135    0.3345 C   0  0  2  0  0  0  0  0  0  0  0  0
    2.5943   -3.7504   -1.0038 O   0  0  0  0  0  0  0  0  0  0  0  0
    3.4807   -3.4544   -2.1135 C   0  0  1  0  0  0  0  0  0  0  0  0
    2.9182   -2.1893   -2.6703 C   0  0  2  0  0  0  0  0  0  0  0  0
    3.0740   -1.7297   -4.0852 C   0  0  0  0  0  0  0  0  0  0  0  0
    4.2440   -0.9186   -4.0652 O   0  0  0  0  0  0  0  0  0  0  0  0
    4.3890   -0.3559   -2.7647 C   0  0  0  0  0  0  0  0  0  0  0  0
    3.9333   -1.4607   -1.8539 C   0  0  1  0  0  0  0  0  0  0  0  0
    3.6708   -1.0955   -0.3879 C   0  0  0  0  0  0  0  0  0  0  0  0
    4.1073   -2.3557    0.4025 C   0  0  2  0  0  0  0  0  0  0  0  0
    5.3418   -2.8092   -0.3798 C   0  0  2  0  0  0  0  0  0  0  0  0
    4.7842   -2.7294   -1.7897 C   0  0  1  0  0  0  0  0  0  0  0  0
    4.9893   -3.4520    2.9275 H   0  0  0  0  0  0  0  0  0  0  0  0
    5.9935   -4.8005    3.4231 H   0  0  0  0  0  0  0  0  0  0  0  0
    7.0005   -2.9149    1.6589 H   0  0  0  0  0  0  0  0  0  0  0  0
    7.4577   -4.6095    1.6162 H   0  0  0  0  0  0  0  0  0  0  0  0
    6.7307   -4.4714   -0.5862 H   0  0  0  0  0  0  0  0  0  0  0  0
    5.1214   -6.1719   -0.1325 H   0  0  0  0  0  0  0  0  0  0  0  0
    4.5630   -6.2326    2.2696 H   0  0  0  0  0  0  0  0  0  0  0  0
    2.8385   -5.6705    0.6815 H   0  0  0  0  0  0  0  0  0  0  0  0
    2.1959   -3.2711    0.9471 H   0  0  0  0  0  0  0  0  0  0  0  0
    3.6098   -4.2028   -2.9112 H   0  0  0  0  0  0  0  0  0  0  0  0
    1.9069   -2.0436   -2.3313 H   0  0  0  0  0  0  0  0  0  0  0  0
    3.1605   -2.5538   -4.7865 H   0  0  0  0  0  0  0  0  0  0  0  0
    2.2254   -1.1090   -4.3782 H   0  0  0  0  0  0  0  0  0  0  0  0
    5.4152   -0.0912   -2.5455 H   0  0  0  0  0  0  0  0  0  0  0  0
    3.7770    0.5430   -2.7337 H   0  0  0  0  0  0  0  0  0  0  0  0
    4.2758   -0.2354   -0.0828 H   0  0  0  0  0  0  0  0  0  0  0  0
    2.6317   -0.8406   -0.1827 H   0  0  0  0  0  0  0  0  0  0  0  0
    4.3222   -2.0838    1.4334 H   0  0  0  0  0  0  0  0  0  0  0  0
    6.1021   -2.0358   -0.2817 H   0  0  0  0  0  0  0  0  0  0  0  0
    5.4885   -2.8246   -2.6082 H   0  0  0  0  0  0  0  0  0  0  0  0
  1  5  1  0
  1  2  1  0
  1 19  1  0
  1 20  1  0
  2  3  1  0
  2 21  1  0
  2 22  1  0
  3 17  1  0
  3  4  1  0
  3 23  1  6
  4  6  1  0
  4  5  1  0
  4 24  1  6
  5  6  1  0
  5 25  1  1
  6  7  1  0
  6 26  1  6
  7 16  1  0
  7  8  1  0
  7 27  1  1
  8  9  1  0
  9 18  1  0
  9 10  1  0
  9 28  1  6
 10 14  1  0
 10 11  1  0
 10 29  1  1
 11 12  1  0
 11 30  1  0
 11 31  1  0
 12 13  1  0
 14 13  1  6
 13 32  1  0
 13 33  1  0
 14 18  1  0
 14 15  1  0
 15 16  1  0
 15 34  1  0
 15 35  1  0
 16 17  1  0
 16 36  1  1
 17 18  1  0
 17 37  1  6
 18 38  1  6
M  END
>  <i_m_ct_stereo_status>  (168) 
1

>  <s_m_source_file>  (168) 
/var/tmp/pbs.5076255.sched01/tmpgskxq70o/44i51uky9l.sdf

>  <i_m_source_file_index>  (168) 
40

>  <i_lp_mmshare_version>  (168) 
48012

>  <i_f3d_flags>  (168) 
0

>  <s_epik_input>  (168) 
W0NIMl0xW0NASF0yW0NAQEhdKE8zKVtDQEBIXTRbQ0BIXShbQ0gyXVtDSDJdNSlbQ0BASF00W0NASF01W0NASF0yW0NASF02W0NAQEhdM1tDQEBIXShbQ0BAXTE2NylbQ0gyXU9bQ0gyXTc=

>  <s_epik_cmdline>  (168) 
J2VwaWtfcHl0aG9uJywgJy1waHQnLCAnMi4wJywgJy1waCcsICc3LjAnLCAnLXRuJywgJzgnLCAnLW1hJywgJzIwMCcsICctaW1hZScsICc8aW5maWxlLm1hZT4nLCAnLW9tYWUnLCAnPG91dGZpbGUubWFlPic=

>  <r_lp_tautomer_probability>  (168) 
1

>  <r_epik_Ionization_Penalty>  (168) 
5.17102e-11

>  <r_epik_Ionization_Penalty_Charging>  (168) 
0

>  <r_epik_Ionization_Penalty_Neutral>  (168) 
5.17102e-11

>  <r_epik_State_Penalty>  (168) 
-0

>  <r_epik_Charging_Adjusted_Penalty>  (168) 
0

>  <i_epik_Tot_Q>  (168) 
0

>  <i_epik_Tot_abs_Q>  (168) 
0

>  <s_lp_Force_Field>  (168) 
OPLS3e

>  <r_lp_Energy>  (168) 
76.2203

>  <b_lp_Chiralities_Consistent>  (168) 
1

>  <s_lp_Variant>  (168) 
52:0-1

>  <s_i_glide_gridfile>  (168) 
pfpi4k_grid

>  <i_i_glide_lignum>  (168) 
40

>  <i_i_glide_rotatable_bonds>  (168) 
0

>  <r_i_docking_score>  (168) 
-3.1819

>  <r_i_glide_ligand_efficiency>  (168) 
-0.176772

>  <r_i_glide_ligand_efficiency_sa>  (168) 
-0.463274

>  <r_i_glide_ligand_efficiency_ln>  (168) 
-0.81789

>  <r_i_glide_gscore>  (168) 
-3.1819

>  <r_i_glide_lipo>  (168) 
-0.440293

>  <r_i_glide_hbond>  (168) 
0

>  <r_i_glide_metal>  (168) 
-0

>  <r_i_glide_rewards>  (168) 
-1.74321

>  <r_i_glide_evdw>  (168) 
-15.7844

>  <r_i_glide_ecoul>  (168) 
-1.39446

>  <r_i_glide_erotb>  (168) 
0

>  <r_i_glide_esite>  (168) 
0

>  <r_i_glide_emodel>  (168) 
-19.2807

>  <r_i_glide_energy>  (168) 
-17.1789

>  <r_i_glide_einternal>  (168) 
0

>  <r_i_glide_intrahb_reward>  (168) 
-0

>  <i_i_glide_confnum>  (168) 
1

>  <i_i_glide_posenum>  (168) 
1

>  <r_i_glide_eff_state_penalty>  (168) 
0

>  <ligand_id>  (168) 
52

>  <original_smiles>  (168) 
C1CC2C3C1C3C1OC3C4COCC45CC1C2C35

>  <smiles>  (168) 
[H]C1([H])OC([H])([H])C23C([H])([H])C4([H])C5([H])OC([H])(C12[H])C3([H])C4([H])C1([H])C([H])([H])C([H])([H])C2([H])C5([H])C21[H]

$$$$
52:0:2
     RDKit          3D

 38 44  0  0  1  0  0  0  0  0999 V2000
    4.1403   -1.6380   -4.3189 C   0  0  0  0  0  0  0  0  0  0  0  0
    3.1314   -1.0695   -3.3487 C   0  0  0  0  0  0  0  0  0  0  0  0
    3.0450   -2.1028   -2.2003 C   0  0  1  0  0  0  0  0  0  0  0  0
    3.4469   -3.3787   -2.8160 C   0  0  1  0  0  0  0  0  0  0  0  0
    4.2305   -3.1054   -4.0266 C   0  0  2  0  0  0  0  0  0  0  0  0
    4.8680   -3.8216   -2.8464 C   0  0  1  0  0  0  0  0  0  0  0  0
    5.7478   -3.3108   -1.7103 C   0  0  2  0  0  0  0  0  0  0  0  0
    5.4773   -4.2420   -0.6390 O   0  0  0  0  0  0  0  0  0  0  0  0
    4.4790   -3.8896    0.3481 C   0  0  1  0  0  0  0  0  0  0  0  0
    5.3055   -3.4353    1.5405 C   0  0  2  0  0  0  0  0  0  0  0  0
    4.8622   -3.4739    2.9845 C   0  0  0  0  0  0  0  0  0  0  0  0
    4.3230   -2.1667    3.2208 O   0  0  0  0  0  0  0  0  0  0  0  0
    4.9324   -1.2093    2.3460 C   0  0  0  0  0  0  0  0  0  0  0  0
    5.1386   -2.0198    1.0782 C   0  0  1  0  0  0  0  0  0  0  0  0
    6.1190   -1.4464    0.0553 C   0  0  0  0  0  0  0  0  0  0  0  0
    5.4820   -1.8251   -1.3094 C   0  0  2  0  0  0  0  0  0  0  0  0
    3.9827   -1.6941   -1.0276 C   0  0  2  0  0  0  0  0  0  0  0  0
    3.9170   -2.4609    0.2703 C   0  0  1  0  0  0  0  0  0  0  0  0
    5.0772   -1.2112   -4.0797 H   0  0  0  0  0  0  0  0  0  0  0  0
    3.8896   -1.3956   -5.3404 H   0  0  0  0  0  0  0  0  0  0  0  0
    3.3743   -0.0437   -3.0492 H   0  0  0  0  0  0  0  0  0  0  0  0
    2.2104   -1.0449   -3.9169 H   0  0  0  0  0  0  0  0  0  0  0  0
    2.0025   -2.2702   -1.9319 H   0  0  0  0  0  0  0  0  0  0  0  0
    2.6358   -4.0688   -2.9668 H   0  0  0  0  0  0  0  0  0  0  0  0
    4.0003   -3.7596   -4.8534 H   0  0  0  0  0  0  0  0  0  0  0  0
    5.0139   -4.8734   -3.0600 H   0  0  0  0  0  0  0  0  0  0  0  0
    6.7945   -3.4446   -2.0042 H   0  0  0  0  0  0  0  0  0  0  0  0
    3.7416   -4.6555    0.6268 H   0  0  0  0  0  0  0  0  0  0  0  0
    6.3392   -3.7434    1.4069 H   0  0  0  0  0  0  0  0  0  0  0  0
    4.1410   -4.2679    3.2068 H   0  0  0  0  0  0  0  0  0  0  0  0
    5.7217   -3.6210    3.6400 H   0  0  0  0  0  0  0  0  0  0  0  0
    4.2710   -0.3491    2.2157 H   0  0  0  0  0  0  0  0  0  0  0  0
    5.8813   -0.8694    2.7765 H   0  0  0  0  0  0  0  0  0  0  0  0
    6.1735   -0.3531    0.1466 H   0  0  0  0  0  0  0  0  0  0  0  0
    7.1377   -1.8316    0.1775 H   0  0  0  0  0  0  0  0  0  0  0  0
    5.8111   -1.1423   -2.0841 H   0  0  0  0  0  0  0  0  0  0  0  0
    3.7802   -0.6532   -0.8107 H   0  0  0  0  0  0  0  0  0  0  0  0
    3.0044   -2.3743    0.8513 H   0  0  0  0  0  0  0  0  0  0  0  0
  1  5  1  0
  1  2  1  0
  1 19  1  0
  1 20  1  0
  2  3  1  0
  2 21  1  0
  2 22  1  0
  3 17  1  0
  3  4  1  0
  3 23  1  1
  4  6  1  0
  4  5  1  0
  4 24  1  6
  5  6  1  0
  5 25  1  6
  6  7  1  0
  6 26  1  6
  7 16  1  0
  7  8  1  0
  7 27  1  6
  8  9  1  0
  9 18  1  0
  9 10  1  0
  9 28  1  1
 10 14  1  0
 10 11  1  0
 10 29  1  1
 11 12  1  0
 11 30  1  0
 11 31  1  0
 12 13  1  0
 14 13  1  1
 13 32  1  0
 13 33  1  0
 14 18  1  0
 14 15  1  0
 15 16  1  0
 15 34  1  0
 15 35  1  0
 16 17  1  0
 16 36  1  6
 17 18  1  0
 17 37  1  1
 18 38  1  1
M  END
>  <i_m_ct_stereo_status>  (169) 
1

>  <s_m_source_file>  (169) 
/var/tmp/pbs.5076255.sched01/tmpgskxq70o/44i51uky9l.sdf

>  <i_m_source_file_index>  (169) 
40

>  <i_lp_mmshare_version>  (169) 
48012

>  <i_f3d_flags>  (169) 
0

>  <s_epik_input>  (169) 
W0NIMl0xW0NASF0yW0NAQEhdKE8zKVtDQEBIXTRbQ0BIXShbQ0gyXVtDSDJdNSlbQ0BASF00W0NASF01W0NASF0yW0NASF02W0NAQEhdM1tDQEBIXShbQ0BAXTE2NylbQ0gyXU9bQ0gyXTc=

>  <s_epik_cmdline>  (169) 
J2VwaWtfcHl0aG9uJywgJy1waHQnLCAnMi4wJywgJy1waCcsICc3LjAnLCAnLXRuJywgJzgnLCAnLW1hJywgJzIwMCcsICctaW1hZScsICc8aW5maWxlLm1hZT4nLCAnLW9tYWUnLCAnPG91dGZpbGUubWFlPic=

>  <r_lp_tautomer_probability>  (169) 
1

>  <r_epik_Ionization_Penalty>  (169) 
5.17102e-11

>  <r_epik_Ionization_Penalty_Charging>  (169) 
0

>  <r_epik_Ionization_Penalty_Neutral>  (169) 
5.17102e-11

>  <r_epik_State_Penalty>  (169) 
-0

>  <r_epik_Charging_Adjusted_Penalty>  (169) 
0

>  <i_epik_Tot_Q>  (169) 
0

>  <i_epik_Tot_abs_Q>  (169) 
0

>  <s_lp_Force_Field>  (169) 
OPLS3e

>  <r_lp_Energy>  (169) 
76.2203

>  <b_lp_Chiralities_Consistent>  (169) 
1

>  <s_lp_Variant>  (169) 
52:0-1

>  <s_i_glide_gridfile>  (169) 
pfpi4k_grid

>  <i_i_glide_lignum>  (169) 
40

>  <i_i_glide_rotatable_bonds>  (169) 
0

>  <r_i_docking_score>  (169) 
-3.13597

>  <r_i_glide_ligand_efficiency>  (169) 
-0.174221

>  <r_i_glide_ligand_efficiency_sa>  (169) 
-0.456587

>  <r_i_glide_ligand_efficiency_ln>  (169) 
-0.806085

>  <r_i_glide_gscore>  (169) 
-3.13597

>  <r_i_glide_lipo>  (169) 
-0.539944

>  <r_i_glide_hbond>  (169) 
0

>  <r_i_glide_metal>  (169) 
-0

>  <r_i_glide_rewards>  (169) 
-1.74321

>  <r_i_glide_evdw>  (169) 
-17.4045

>  <r_i_glide_ecoul>  (169) 
0.11607

>  <r_i_glide_erotb>  (169) 
0

>  <r_i_glide_esite>  (169) 
0

>  <r_i_glide_emodel>  (169) 
-19.3047

>  <r_i_glide_energy>  (169) 
-17.2884

>  <r_i_glide_einternal>  (169) 
0

>  <r_i_glide_intrahb_reward>  (169) 
-0

>  <i_i_glide_confnum>  (169) 
1

>  <i_i_glide_posenum>  (169) 
12

>  <r_i_glide_eff_state_penalty>  (169) 
0

>  <ligand_id>  (169) 
52

>  <original_smiles>  (169) 
C1CC2C3C1C3C1OC3C4COCC45CC1C2C35

>  <smiles>  (169) 
[H]C1([H])OC([H])([H])C23C([H])([H])C4([H])C5([H])OC([H])(C12[H])C3([H])C4([H])C1([H])C([H])([H])C([H])([H])C2([H])C5([H])C21[H]

$$$$
53:0:0
     RDKit          3D

 13 14  0  0  1  0  0  0  0  0999 V2000
   -8.2819   -5.0437   -6.2922 C   0  0  0  0  0  0  0  0  0  0  0  0
   -7.4983   -4.6247   -5.1990 C   0  0  0  0  0  0  0  0  0  0  0  0
   -6.4256   -5.4188   -4.7557 C   0  0  0  0  0  0  0  0  0  0  0  0
   -6.1585   -6.6309   -5.4156 C   0  0  0  0  0  0  0  0  0  0  0  0
   -4.9420   -7.8520   -5.1596 S   0  0  0  0  0  0  0  0  0  0  0  0
   -5.4732   -8.8190   -6.4301 N   0  0  0  0  0  0  0  0  0  0  0  0
   -6.5043   -8.3094   -7.0499 N   0  0  0  0  0  0  0  0  0  0  0  0
   -6.9295   -7.0829   -6.5201 C   0  0  0  0  0  0  0  0  0  0  0  0
   -7.9983   -6.2597   -6.9478 C   0  0  0  0  0  0  0  0  0  0  0  0
   -9.1045   -4.4302   -6.6262 H   0  0  0  0  0  0  0  0  0  0  0  0
   -7.7180   -3.6920   -4.7031 H   0  0  0  0  0  0  0  0  0  0  0  0
   -5.8139   -5.1030   -3.9235 H   0  0  0  0  0  0  0  0  0  0  0  0
   -8.6096   -6.5697   -7.7817 H   0  0  0  0  0  0  0  0  0  0  0  0
  1  9  2  0
  1  2  1  0
  1 10  1  0
  2  3  2  0
  2 11  1  0
  3  4  1  0
  3 12  1  0
  4  8  2  0
  4  5  1  0
  5  6  1  0
  6  7  2  0
  7  8  1  0
  8  9  1  0
  9 13  1  0
M  END
>  <i_m_ct_stereo_status>  (170) 
1

>  <s_m_source_file>  (170) 
/var/tmp/pbs.5076255.sched01/tmpgskxq70o/44i51uky9l.sdf

>  <i_m_source_file_index>  (170) 
41

>  <i_lp_mmshare_version>  (170) 
48012

>  <i_f3d_flags>  (170) 
0

>  <s_epik_input>  (170) 
W2NIXTFbY0hdW2NIXVtjSF1jKGMxMilubnMy

>  <s_epik_cmdline>  (170) 
J2VwaWtfcHl0aG9uJywgJy1waHQnLCAnMi4wJywgJy1waCcsICc3LjAnLCAnLXRuJywgJzgnLCAnLW1hJywgJzIwMCcsICctaW1hZScsICc8aW5maWxlLm1hZT4nLCAnLW9tYWUnLCAnPG91dGZpbGUubWFlPic=

>  <r_lp_tautomer_probability>  (170) 
1

>  <r_epik_Ionization_Penalty>  (170) 
1.18962e-09

>  <r_epik_Ionization_Penalty_Charging>  (170) 
0

>  <r_epik_Ionization_Penalty_Neutral>  (170) 
1.18962e-09

>  <r_epik_State_Penalty>  (170) 
-0

>  <r_epik_Charging_Adjusted_Penalty>  (170) 
0

>  <i_epik_Tot_Q>  (170) 
0

>  <i_epik_Tot_abs_Q>  (170) 
0

>  <s_lp_Force_Field>  (170) 
OPLS3e

>  <r_lp_Energy>  (170) 
9.75904

>  <b_lp_Chiralities_Consistent>  (170) 
1

>  <s_lp_Variant>  (170) 
53:0-1

>  <s_i_glide_gridfile>  (170) 
pfpi4k_grid

>  <i_i_glide_lignum>  (170) 
41

>  <i_i_glide_rotatable_bonds>  (170) 
0

>  <r_i_docking_score>  (170) 
-5.99282

>  <r_i_glide_ligand_efficiency>  (170) 
-0.665868

>  <r_i_glide_ligand_efficiency_sa>  (170) 
-1.38506

>  <r_i_glide_ligand_efficiency_ln>  (170) 
-1.87438

>  <r_i_glide_gscore>  (170) 
-5.99282

>  <r_i_glide_lipo>  (170) 
-2.03094

>  <r_i_glide_hbond>  (170) 
0

>  <r_i_glide_metal>  (170) 
-0

>  <r_i_glide_rewards>  (170) 
-2.95

>  <r_i_glide_evdw>  (170) 
-20.3635

>  <r_i_glide_ecoul>  (170) 
0.0419846

>  <r_i_glide_erotb>  (170) 
0

>  <r_i_glide_esite>  (170) 
0

>  <r_i_glide_emodel>  (170) 
-28.3513

>  <r_i_glide_energy>  (170) 
-20.3215

>  <r_i_glide_einternal>  (170) 
0

>  <r_i_glide_intrahb_reward>  (170) 
-0

>  <i_i_glide_confnum>  (170) 
1

>  <i_i_glide_posenum>  (170) 
23

>  <r_i_glide_eff_state_penalty>  (170) 
0

>  <ligand_id>  (170) 
53

>  <original_smiles>  (170) 
c1ccc2snnc2c1

>  <smiles>  (170) 
[H]c1c([H])c([H])c2snnc2c1[H]

$$$$
53:0:1
     RDKit          3D

 13 14  0  0  1  0  0  0  0  0999 V2000
   -8.3817   -4.2537   -5.5533 C   0  0  0  0  0  0  0  0  0  0  0  0
   -8.8772   -5.0364   -6.6148 C   0  0  0  0  0  0  0  0  0  0  0  0
   -8.1884   -6.2006   -7.0051 C   0  0  0  0  0  0  0  0  0  0  0  0
   -7.0172   -6.5656   -6.3202 C   0  0  0  0  0  0  0  0  0  0  0  0
   -5.9256   -7.9135   -6.5091 S   0  0  0  0  0  0  0  0  0  0  0  0
   -4.9006   -7.4096   -5.2747 N   0  0  0  0  0  0  0  0  0  0  0  0
   -5.3008   -6.2980   -4.7212 N   0  0  0  0  0  0  0  0  0  0  0  0
   -6.4889   -5.7912   -5.2547 C   0  0  0  0  0  0  0  0  0  0  0  0
   -7.1977   -4.6258   -4.8814 C   0  0  0  0  0  0  0  0  0  0  0  0
   -8.9077   -3.3578   -5.2548 H   0  0  0  0  0  0  0  0  0  0  0  0
   -9.7875   -4.7482   -7.1208 H   0  0  0  0  0  0  0  0  0  0  0  0
   -8.5641   -6.8148   -7.8103 H   0  0  0  0  0  0  0  0  0  0  0  0
   -6.8251   -4.0081   -4.0764 H   0  0  0  0  0  0  0  0  0  0  0  0
  1  9  2  0
  1  2  1  0
  1 10  1  0
  2  3  2  0
  2 11  1  0
  3  4  1  0
  3 12  1  0
  4  8  2  0
  4  5  1  0
  5  6  1  0
  6  7  2  0
  7  8  1  0
  8  9  1  0
  9 13  1  0
M  END
>  <i_m_ct_stereo_status>  (171) 
1

>  <s_m_source_file>  (171) 
/var/tmp/pbs.5076255.sched01/tmpgskxq70o/44i51uky9l.sdf

>  <i_m_source_file_index>  (171) 
41

>  <i_lp_mmshare_version>  (171) 
48012

>  <i_f3d_flags>  (171) 
0

>  <s_epik_input>  (171) 
W2NIXTFbY0hdW2NIXVtjSF1jKGMxMilubnMy

>  <s_epik_cmdline>  (171) 
J2VwaWtfcHl0aG9uJywgJy1waHQnLCAnMi4wJywgJy1waCcsICc3LjAnLCAnLXRuJywgJzgnLCAnLW1hJywgJzIwMCcsICctaW1hZScsICc8aW5maWxlLm1hZT4nLCAnLW9tYWUnLCAnPG91dGZpbGUubWFlPic=

>  <r_lp_tautomer_probability>  (171) 
1

>  <r_epik_Ionization_Penalty>  (171) 
1.18962e-09

>  <r_epik_Ionization_Penalty_Charging>  (171) 
0

>  <r_epik_Ionization_Penalty_Neutral>  (171) 
1.18962e-09

>  <r_epik_State_Penalty>  (171) 
-0

>  <r_epik_Charging_Adjusted_Penalty>  (171) 
0

>  <i_epik_Tot_Q>  (171) 
0

>  <i_epik_Tot_abs_Q>  (171) 
0

>  <s_lp_Force_Field>  (171) 
OPLS3e

>  <r_lp_Energy>  (171) 
9.75904

>  <b_lp_Chiralities_Consistent>  (171) 
1

>  <s_lp_Variant>  (171) 
53:0-1

>  <s_i_glide_gridfile>  (171) 
pfpi4k_grid

>  <i_i_glide_lignum>  (171) 
41

>  <i_i_glide_rotatable_bonds>  (171) 
0

>  <r_i_docking_score>  (171) 
-5.93808

>  <r_i_glide_ligand_efficiency>  (171) 
-0.659787

>  <r_i_glide_ligand_efficiency_sa>  (171) 
-1.37241

>  <r_i_glide_ligand_efficiency_ln>  (171) 
-1.85726

>  <r_i_glide_gscore>  (171) 
-5.93808

>  <r_i_glide_lipo>  (171) 
-1.90422

>  <r_i_glide_hbond>  (171) 
0

>  <r_i_glide_metal>  (171) 
-0

>  <r_i_glide_rewards>  (171) 
-2.85

>  <r_i_glide_evdw>  (171) 
-20.912

>  <r_i_glide_ecoul>  (171) 
-0.921747

>  <r_i_glide_erotb>  (171) 
0

>  <r_i_glide_esite>  (171) 
0

>  <r_i_glide_emodel>  (171) 
-29.7888

>  <r_i_glide_energy>  (171) 
-21.8338

>  <r_i_glide_einternal>  (171) 
0

>  <r_i_glide_intrahb_reward>  (171) 
-0

>  <i_i_glide_confnum>  (171) 
1

>  <i_i_glide_posenum>  (171) 
1

>  <r_i_glide_eff_state_penalty>  (171) 
0

>  <ligand_id>  (171) 
53

>  <original_smiles>  (171) 
c1ccc2snnc2c1

>  <smiles>  (171) 
[H]c1c([H])c([H])c2snnc2c1[H]

$$$$
53:0:2
     RDKit          3D

 13 14  0  0  1  0  0  0  0  0999 V2000
    2.9241   -9.6605    3.2078 C   0  0  0  0  0  0  0  0  0  0  0  0
    2.0583  -10.7446    3.4513 C   0  0  0  0  0  0  0  0  0  0  0  0
    0.6724  -10.5816    3.2733 C   0  0  0  0  0  0  0  0  0  0  0  0
    0.1749   -9.3377    2.8472 C   0  0  0  0  0  0  0  0  0  0  0  0
   -1.4402   -8.7794    2.5084 S   0  0  0  0  0  0  0  0  0  0  0  0
   -0.9454   -7.2240    2.0990 N   0  0  0  0  0  0  0  0  0  0  0  0
    0.3469   -7.0729    2.1726 N   0  0  0  0  0  0  0  0  0  0  0  0
    1.0231   -8.2280    2.5885 C   0  0  0  0  0  0  0  0  0  0  0  0
    2.4119   -8.4153    2.7819 C   0  0  0  0  0  0  0  0  0  0  0  0
    3.9871   -9.7845    3.3510 H   0  0  0  0  0  0  0  0  0  0  0  0
    2.4519  -11.6989    3.7753 H   0  0  0  0  0  0  0  0  0  0  0  0
    0.0055  -11.4036    3.4642 H   0  0  0  0  0  0  0  0  0  0  0  0
    3.0899   -7.5934    2.6032 H   0  0  0  0  0  0  0  0  0  0  0  0
  1  9  2  0
  1  2  1  0
  1 10  1  0
  2  3  2  0
  2 11  1  0
  3  4  1  0
  3 12  1  0
  4  8  2  0
  4  5  1  0
  5  6  1  0
  6  7  2  0
  7  8  1  0
  8  9  1  0
  9 13  1  0
M  END
>  <i_m_ct_stereo_status>  (172) 
1

>  <s_m_source_file>  (172) 
/var/tmp/pbs.5076255.sched01/tmpgskxq70o/44i51uky9l.sdf

>  <i_m_source_file_index>  (172) 
41

>  <i_lp_mmshare_version>  (172) 
48012

>  <i_f3d_flags>  (172) 
0

>  <s_epik_input>  (172) 
W2NIXTFbY0hdW2NIXVtjSF1jKGMxMilubnMy

>  <s_epik_cmdline>  (172) 
J2VwaWtfcHl0aG9uJywgJy1waHQnLCAnMi4wJywgJy1waCcsICc3LjAnLCAnLXRuJywgJzgnLCAnLW1hJywgJzIwMCcsICctaW1hZScsICc8aW5maWxlLm1hZT4nLCAnLW9tYWUnLCAnPG91dGZpbGUubWFlPic=

>  <r_lp_tautomer_probability>  (172) 
1

>  <r_epik_Ionization_Penalty>  (172) 
1.18962e-09

>  <r_epik_Ionization_Penalty_Charging>  (172) 
0

>  <r_epik_Ionization_Penalty_Neutral>  (172) 
1.18962e-09

>  <r_epik_State_Penalty>  (172) 
-0

>  <r_epik_Charging_Adjusted_Penalty>  (172) 
0

>  <i_epik_Tot_Q>  (172) 
0

>  <i_epik_Tot_abs_Q>  (172) 
0

>  <s_lp_Force_Field>  (172) 
OPLS3e

>  <r_lp_Energy>  (172) 
9.75904

>  <b_lp_Chiralities_Consistent>  (172) 
1

>  <s_lp_Variant>  (172) 
53:0-1

>  <s_i_glide_gridfile>  (172) 
pfpi4k_grid

>  <i_i_glide_lignum>  (172) 
41

>  <i_i_glide_rotatable_bonds>  (172) 
0

>  <r_i_docking_score>  (172) 
-3.71602

>  <r_i_glide_ligand_efficiency>  (172) 
-0.412891

>  <r_i_glide_ligand_efficiency_sa>  (172) 
-0.858847

>  <r_i_glide_ligand_efficiency_ln>  (172) 
-1.16226

>  <r_i_glide_gscore>  (172) 
-3.71602

>  <r_i_glide_lipo>  (172) 
-0.237328

>  <r_i_glide_hbond>  (172) 
0

>  <r_i_glide_metal>  (172) 
-0

>  <r_i_glide_rewards>  (172) 
-2.25

>  <r_i_glide_evdw>  (172) 
-15.6462

>  <r_i_glide_ecoul>  (172) 
-1.81646

>  <r_i_glide_erotb>  (172) 
0

>  <r_i_glide_esite>  (172) 
-0.17391

>  <r_i_glide_emodel>  (172) 
-22.4411

>  <r_i_glide_energy>  (172) 
-17.4626

>  <r_i_glide_einternal>  (172) 
0

>  <r_i_glide_intrahb_reward>  (172) 
-0

>  <i_i_glide_confnum>  (172) 
1

>  <i_i_glide_posenum>  (172) 
2

>  <r_i_glide_eff_state_penalty>  (172) 
0

>  <ligand_id>  (172) 
53

>  <original_smiles>  (172) 
c1ccc2snnc2c1

>  <smiles>  (172) 
[H]c1c([H])c([H])c2snnc2c1[H]

$$$$
54:0:0
     RDKit          3D

 50 54  0  0  1  0  0  0  0  0999 V2000
    5.6125   -6.9386    5.4477 C   0  0  0  0  0  0  0  0  0  0  0  0
    4.6392   -6.6447    4.3583 N   0  0  0  0  0  0  0  0  0  0  0  0
    3.2908   -6.9948    4.8833 C   0  0  0  0  0  0  0  0  0  0  0  0
    4.6479   -5.1933    4.0549 C   0  0  0  0  0  0  0  0  0  0  0  0
    5.8848   -4.7452    3.2733 C   0  0  0  0  0  0  0  0  0  0  0  0
    5.9226   -5.3017    1.8477 C   0  0  1  0  0  0  0  0  0  0  0  0
    7.3679   -5.3776    1.3429 C   0  0  0  0  0  0  0  0  0  0  0  0
    7.7629   -6.8232    1.5713 C   0  0  0  0  0  0  0  0  0  0  0  0
    6.5487   -7.5136    1.3153 O   0  0  0  0  0  0  0  0  0  0  0  0
    5.4695   -6.7685    1.8816 C   0  0  2  0  0  0  0  0  0  0  0  0
    4.1258   -7.2169    1.3034 C   0  0  1  0  0  0  0  0  0  0  0  0
    3.7830   -7.9173    2.5323 O   0  0  0  0  0  0  0  0  0  0  0  0
    5.0118   -7.4870    3.1578 C   0  0  2  0  0  0  0  0  0  0  0  0
    3.1422   -6.1027    0.9544 C   0  0  0  0  0  0  0  0  0  0  0  0
    1.8652   -6.2030    1.0048 N   0  0  0  0  0  0  0  0  0  0  0  0
    1.1780   -7.4197    1.3803 C   0  0  0  0  0  0  0  0  0  0  0  0
   -0.3187   -7.1563    1.2813 C   0  0  0  0  0  0  0  0  0  0  0  0
   -1.0230   -8.3002    1.6888 O   0  0  0  0  0  0  0  0  0  0  0  0
    3.7667   -4.8309    0.5051 C   0  0  0  0  0  0  0  0  0  0  0  0
    3.0246   -3.9830   -0.3551 C   0  0  0  0  0  0  0  0  0  0  0  0
    3.5463   -2.7583   -0.7996 C   0  0  0  0  0  0  0  0  0  0  0  0
    4.8214   -2.3518   -0.3758 C   0  0  0  0  0  0  0  0  0  0  0  0
    5.3321   -1.1545   -0.7945 O   0  0  0  0  0  0  0  0  0  0  0  0
    5.5696   -3.1803    0.4818 C   0  0  0  0  0  0  0  0  0  0  0  0
    5.0638   -4.4260    0.9159 C   0  0  0  0  0  0  0  0  0  0  0  0
    5.4412   -6.2945    6.3119 H   0  0  0  0  0  0  0  0  0  0  0  0
    6.6437   -6.7947    5.1350 H   0  0  0  0  0  0  0  0  0  0  0  0
    5.5241   -7.9656    5.7960 H   0  0  0  0  0  0  0  0  0  0  0  0
    2.4979   -6.7408    4.1834 H   0  0  0  0  0  0  0  0  0  0  0  0
    3.0757   -6.4367    5.7916 H   0  0  0  0  0  0  0  0  0  0  0  0
    3.2070   -8.0526    5.1192 H   0  0  0  0  0  0  0  0  0  0  0  0
    3.7543   -4.8957    3.5060 H   0  0  0  0  0  0  0  0  0  0  0  0
    4.6050   -4.6319    4.9860 H   0  0  0  0  0  0  0  0  0  0  0  0
    5.9164   -3.6544    3.2504 H   0  0  0  0  0  0  0  0  0  0  0  0
    6.7704   -5.0705    3.8150 H   0  0  0  0  0  0  0  0  0  0  0  0
    7.4044   -5.2020    0.2666 H   0  0  0  0  0  0  0  0  0  0  0  0
    8.0455   -4.6603    1.8188 H   0  0  0  0  0  0  0  0  0  0  0  0
    8.5768   -7.1361    0.9123 H   0  0  0  0  0  0  0  0  0  0  0  0
    8.0769   -6.9834    2.6045 H   0  0  0  0  0  0  0  0  0  0  0  0
    4.2634   -7.8953    0.4673 H   0  0  0  0  0  0  0  0  0  0  0  0
    5.6451   -8.3405    3.3916 H   0  0  0  0  0  0  0  0  0  0  0  0
    1.4389   -8.2424    0.7164 H   0  0  0  0  0  0  0  0  0  0  0  0
    1.3961   -7.7263    2.4036 H   0  0  0  0  0  0  0  0  0  0  0  0
   -0.6193   -6.3232    1.9134 H   0  0  0  0  0  0  0  0  0  0  0  0
   -0.5832   -6.9218    0.2510 H   0  0  0  0  0  0  0  0  0  0  0  0
   -0.7925   -9.0053    1.1062 H   0  0  0  0  0  0  0  0  0  0  0  0
    2.0503   -4.2878   -0.7108 H   0  0  0  0  0  0  0  0  0  0  0  0
    2.9511   -2.1463   -1.4645 H   0  0  0  0  0  0  0  0  0  0  0  0
    4.6721   -0.6177   -1.2206 H   0  0  0  0  0  0  0  0  0  0  0  0
    6.5492   -2.8428    0.8099 H   0  0  0  0  0  0  0  0  0  0  0  0
  1  2  1  0
  1 26  1  0
  1 27  1  0
  1 28  1  0
  2 13  1  0
  2  3  1  0
  2  4  1  0
  3 29  1  0
  3 30  1  0
  3 31  1  0
  4  5  1  0
  4 32  1  0
  4 33  1  0
  6  5  1  1
  5 34  1  0
  5 35  1  0
  6 10  1  0
  6 25  1  0
  6  7  1  0
  7  8  1  0
  7 36  1  0
  7 37  1  0
  8  9  1  0
  8 38  1  0
  8 39  1  0
 10  9  1  6
 10 13  1  0
 10 11  1  0
 11 12  1  0
 11 14  1  0
 11 40  1  6
 12 13  1  0
 13 41  1  1
 14 15  2  3
 14 19  1  0
 15 16  1  0
 16 17  1  0
 16 42  1  0
 16 43  1  0
 17 18  1  0
 17 44  1  0
 17 45  1  0
 18 46  1  0
 19 25  2  0
 19 20  1  0
 20 21  2  0
 20 47  1  0
 21 22  1  0
 21 48  1  0
 22 23  1  0
 22 24  2  0
 23 49  1  0
 24 25  1  0
 24 50  1  0
M  CHG  1   2   1
M  END
>  <i_m_ct_stereo_status>  (173) 
1

>  <s_m_source_file>  (173) 
/var/tmp/pbs.5076255.sched01/tmpgskxq70o/44i51uky9l.sdf

>  <i_m_source_file_index>  (173) 
42

>  <i_lp_mmshare_version>  (173) 
48012

>  <i_f3d_flags>  (173) 
0

>  <s_epik_input>  (173) 
W0NIMl0xW0NIMl1bTitdKFtDSDNdKShbQ0gzXSlbQ0BIXTJPW0NASF0oW0NAXTIoW0NAQF0xMzQpT1tDSDJdW0NIMl0zKS9DKD1OXFtDSDJdW0NIMl1bT0hdKWM1YzRbY0hdYyhbT0hdKVtjSF1bY0hdNQ==

>  <s_epik_cmdline>  (173) 
J2VwaWtfcHl0aG9uJywgJy1waHQnLCAnMi4wJywgJy1waCcsICc3LjAnLCAnLXRuJywgJzgnLCAnLW1hJywgJzIwMCcsICctaW1hZScsICc8aW5maWxlLm1hZT4nLCAnLW9tYWUnLCAnPG91dGZpbGUubWFlPic=

>  <r_lp_tautomer_probability>  (173) 
0.499996

>  <r_epik_Ionization_Penalty>  (173) 
0.0052131

>  <r_epik_Ionization_Penalty_Charging>  (173) 
0

>  <r_epik_Ionization_Penalty_Neutral>  (173) 
0.0052131

>  <r_epik_State_Penalty>  (173) 
0.41448

>  <r_epik_Charging_Adjusted_Penalty>  (173) 
0.41448

>  <i_epik_Tot_Q>  (173) 
1

>  <i_epik_Tot_abs_Q>  (173) 
1

>  <s_epik_Chemistry_Notes>  (173) 
This compound has an imine and may undergo hydrolysis. This compound contains an acetal/aminal-like group ( X-CH(R)-Y where X, Y are N, S, or O) that may be acid/base labile, releasing an aldehyde.

>  <s_lp_Force_Field>  (173) 
OPLS3e

>  <r_lp_Energy>  (173) 
60.2982

>  <b_lp_Chiralities_Consistent>  (173) 
1

>  <s_lp_Variant>  (173) 
54:0-1

>  <s_i_glide_gridfile>  (173) 
pfpi4k_grid

>  <i_i_glide_lignum>  (173) 
42

>  <i_i_glide_rotatable_bonds>  (173) 
4

>  <r_i_docking_score>  (173) 
-3.4651

>  <r_i_glide_ligand_efficiency>  (173) 
-0.138604

>  <r_i_glide_ligand_efficiency_sa>  (173) 
-0.40528

>  <r_i_glide_ligand_efficiency_ln>  (173) 
-0.821332

>  <r_i_glide_gscore>  (173) 
-3.4651

>  <r_i_glide_lipo>  (173) 
-0.401375

>  <r_i_glide_hbond>  (173) 
-0.32

>  <r_i_glide_metal>  (173) 
-0

>  <r_i_glide_rewards>  (173) 
-1.054

>  <r_i_glide_evdw>  (173) 
-20.4126

>  <r_i_glide_ecoul>  (173) 
-6.57928

>  <r_i_glide_erotb>  (173) 
0.318489

>  <r_i_glide_esite>  (173) 
-0.000684944

>  <r_i_glide_emodel>  (173) 
-35.003

>  <r_i_glide_energy>  (173) 
-26.9919

>  <r_i_glide_einternal>  (173) 
0.247793

>  <r_i_glide_intrahb_reward>  (173) 
-0

>  <i_i_glide_confnum>  (173) 
2

>  <i_i_glide_posenum>  (173) 
2

>  <r_i_glide_eff_state_penalty>  (173) 
0

>  <ligand_id>  (173) 
54

>  <original_smiles>  (173) 
C[N+]1(C)CCC23CCOC24C(OC41)C(=NCCO)c1ccc(O)cc13

>  <smiles>  (173) 
[H]Oc1c([H])c([H])c2c(c1[H])C13C([H])([H])C([H])([H])OC14C([H])(OC4([H])[N+](C([H])([H])[H])(C([H])([H])[H])C([H])([H])C3([H])[H])C2=NC([H])([H])C([H])([H])O[H]

$$$$
54:0:1
     RDKit          3D

 50 54  0  0  1  0  0  0  0  0999 V2000
    5.1529   -8.2072    5.5942 C   0  0  0  0  0  0  0  0  0  0  0  0
    4.3200   -7.5000    4.5749 N   0  0  0  0  0  0  0  0  0  0  0  0
    2.9498   -7.3942    5.1382 C   0  0  0  0  0  0  0  0  0  0  0  0
    4.8005   -6.1122    4.3493 C   0  0  0  0  0  0  0  0  0  0  0  0
    6.1050   -6.0315    3.5525 C   0  0  0  0  0  0  0  0  0  0  0  0
    5.9007   -6.4495    2.0909 C   0  0  1  0  0  0  0  0  0  0  0  0
    7.2274   -6.9568    1.5348 C   0  0  0  0  0  0  0  0  0  0  0  0
    7.1072   -8.4600    1.6294 C   0  0  0  0  0  0  0  0  0  0  0  0
    5.7369   -8.6916    1.3750 O   0  0  0  0  0  0  0  0  0  0  0  0
    4.9871   -7.6813    2.0483 C   0  0  2  0  0  0  0  0  0  0  0  0
    3.5635   -7.6108    1.5142 C   0  0  1  0  0  0  0  0  0  0  0  0
    3.0145   -8.2292    2.7022 O   0  0  0  0  0  0  0  0  0  0  0  0
    4.3348   -8.3189    3.2926 C   0  0  2  0  0  0  0  0  0  0  0  0
    2.9972   -6.2267    1.2447 C   0  0  0  0  0  0  0  0  0  0  0  0
    1.7548   -5.9302    1.3358 N   0  0  0  0  0  0  0  0  0  0  0  0
    0.6680   -6.8669    1.6078 C   0  0  0  0  0  0  0  0  0  0  0  0
    0.1021   -6.6684    3.0327 C   0  0  0  0  0  0  0  0  0  0  0  0
   -1.2287   -7.1058    3.0560 O   0  0  0  0  0  0  0  0  0  0  0  0
    4.0032   -5.1972    0.8606 C   0  0  0  0  0  0  0  0  0  0  0  0
    3.5790   -4.0977    0.0830 C   0  0  0  0  0  0  0  0  0  0  0  0
    4.4772   -3.0825   -0.2868 C   0  0  0  0  0  0  0  0  0  0  0  0
    5.8140   -3.1497    0.1217 C   0  0  0  0  0  0  0  0  0  0  0  0
    6.6898   -2.1623   -0.2315 O   0  0  0  0  0  0  0  0  0  0  0  0
    6.2538   -4.2371    0.8934 C   0  0  0  0  0  0  0  0  0  0  0  0
    5.3694   -5.2714    1.2587 C   0  0  0  0  0  0  0  0  0  0  0  0
    5.1853   -7.5900    6.5055 H   0  0  0  0  0  0  0  0  0  0  0  0
    6.1748   -8.3837    5.2280 H   0  0  0  0  0  0  0  0  0  0  0  0
    4.6885   -9.1709    5.8521 H   0  0  0  0  0  0  0  0  0  0  0  0
    2.3749   -6.7196    4.4995 H   0  0  0  0  0  0  0  0  0  0  0  0
    2.9674   -6.9491    6.1411 H   0  0  0  0  0  0  0  0  0  0  0  0
    2.4445   -8.3629    5.2103 H   0  0  0  0  0  0  0  0  0  0  0  0
    4.0388   -5.5040    3.8405 H   0  0  0  0  0  0  0  0  0  0  0  0
    4.9331   -5.6395    5.3243 H   0  0  0  0  0  0  0  0  0  0  0  0
    6.4970   -5.0213    3.6052 H   0  0  0  0  0  0  0  0  0  0  0  0
    6.8476   -6.6696    4.0410 H   0  0  0  0  0  0  0  0  0  0  0  0
    7.3151   -6.7109    0.4826 H   0  0  0  0  0  0  0  0  0  0  0  0
    8.1137   -6.5626    2.0341 H   0  0  0  0  0  0  0  0  0  0  0  0
    7.7297   -8.9459    0.8835 H   0  0  0  0  0  0  0  0  0  0  0  0
    7.3707   -8.8079    2.6287 H   0  0  0  0  0  0  0  0  0  0  0  0
    3.4773   -8.2526    0.6547 H   0  0  0  0  0  0  0  0  0  0  0  0
    4.6483   -9.3594    3.4093 H   0  0  0  0  0  0  0  0  0  0  0  0
   -0.0963   -6.6363    0.8622 H   0  0  0  0  0  0  0  0  0  0  0  0
    0.8964   -7.9211    1.4480 H   0  0  0  0  0  0  0  0  0  0  0  0
    0.6044   -7.3088    3.7552 H   0  0  0  0  0  0  0  0  0  0  0  0
    0.1643   -5.6316    3.3835 H   0  0  0  0  0  0  0  0  0  0  0  0
   -1.1748   -8.0512    3.1350 H   0  0  0  0  0  0  0  0  0  0  0  0
    2.5547   -4.0255   -0.2435 H   0  0  0  0  0  0  0  0  0  0  0  0
    4.1224   -2.2526   -0.8805 H   0  0  0  0  0  0  0  0  0  0  0  0
    7.5488   -2.2909    0.1414 H   0  0  0  0  0  0  0  0  0  0  0  0
    7.2879   -4.2836    1.2170 H   0  0  0  0  0  0  0  0  0  0  0  0
  1  2  1  0
  1 26  1  0
  1 27  1  0
  1 28  1  0
  2 13  1  0
  2  3  1  0
  2  4  1  0
  3 29  1  0
  3 30  1  0
  3 31  1  0
  4  5  1  0
  4 32  1  0
  4 33  1  0
  6  5  1  1
  5 34  1  0
  5 35  1  0
  6 10  1  0
  6 25  1  0
  6  7  1  0
  7  8  1  0
  7 36  1  0
  7 37  1  0
  8  9  1  0
  8 38  1  0
  8 39  1  0
 10  9  1  6
 10 13  1  0
 10 11  1  0
 11 12  1  0
 11 14  1  0
 11 40  1  6
 12 13  1  0
 13 41  1  1
 14 15  2  3
 14 19  1  0
 15 16  1  0
 16 17  1  0
 16 42  1  0
 16 43  1  0
 17 18  1  0
 17 44  1  0
 17 45  1  0
 18 46  1  0
 19 25  2  0
 19 20  1  0
 20 21  2  0
 20 47  1  0
 21 22  1  0
 21 48  1  0
 22 23  1  0
 22 24  2  0
 23 49  1  0
 24 25  1  0
 24 50  1  0
M  CHG  1   2   1
M  END
>  <i_m_ct_stereo_status>  (174) 
1

>  <s_m_source_file>  (174) 
/var/tmp/pbs.5076255.sched01/tmpgskxq70o/44i51uky9l.sdf

>  <i_m_source_file_index>  (174) 
42

>  <i_lp_mmshare_version>  (174) 
48012

>  <i_f3d_flags>  (174) 
0

>  <s_epik_input>  (174) 
W0NIMl0xW0NIMl1bTitdKFtDSDNdKShbQ0gzXSlbQ0BIXTJPW0NASF0oW0NAXTIoW0NAQF0xMzQpT1tDSDJdW0NIMl0zKS9DKD1OXFtDSDJdW0NIMl1bT0hdKWM1YzRbY0hdYyhbT0hdKVtjSF1bY0hdNQ==

>  <s_epik_cmdline>  (174) 
J2VwaWtfcHl0aG9uJywgJy1waHQnLCAnMi4wJywgJy1waCcsICc3LjAnLCAnLXRuJywgJzgnLCAnLW1hJywgJzIwMCcsICctaW1hZScsICc8aW5maWxlLm1hZT4nLCAnLW9tYWUnLCAnPG91dGZpbGUubWFlPic=

>  <r_lp_tautomer_probability>  (174) 
0.499996

>  <r_epik_Ionization_Penalty>  (174) 
0.0052131

>  <r_epik_Ionization_Penalty_Charging>  (174) 
0

>  <r_epik_Ionization_Penalty_Neutral>  (174) 
0.0052131

>  <r_epik_State_Penalty>  (174) 
0.41448

>  <r_epik_Charging_Adjusted_Penalty>  (174) 
0.41448

>  <i_epik_Tot_Q>  (174) 
1

>  <i_epik_Tot_abs_Q>  (174) 
1

>  <s_epik_Chemistry_Notes>  (174) 
This compound has an imine and may undergo hydrolysis. This compound contains an acetal/aminal-like group ( X-CH(R)-Y where X, Y are N, S, or O) that may be acid/base labile, releasing an aldehyde.

>  <s_lp_Force_Field>  (174) 
OPLS3e

>  <r_lp_Energy>  (174) 
60.2982

>  <b_lp_Chiralities_Consistent>  (174) 
1

>  <s_lp_Variant>  (174) 
54:0-1

>  <s_i_glide_gridfile>  (174) 
pfpi4k_grid

>  <i_i_glide_lignum>  (174) 
42

>  <i_i_glide_rotatable_bonds>  (174) 
4

>  <r_i_docking_score>  (174) 
-3.33431

>  <r_i_glide_ligand_efficiency>  (174) 
-0.133373

>  <r_i_glide_ligand_efficiency_sa>  (174) 
-0.389984

>  <r_i_glide_ligand_efficiency_ln>  (174) 
-0.790332

>  <r_i_glide_gscore>  (174) 
-3.33431

>  <r_i_glide_lipo>  (174) 
-0.556735

>  <r_i_glide_hbond>  (174) 
-0.221115

>  <r_i_glide_metal>  (174) 
-0

>  <r_i_glide_rewards>  (174) 
-1.07823

>  <r_i_glide_evdw>  (174) 
-20.309

>  <r_i_glide_ecoul>  (174) 
-5.20627

>  <r_i_glide_erotb>  (174) 
0.318489

>  <r_i_glide_esite>  (174) 
-0.000326544

>  <r_i_glide_emodel>  (174) 
-31.7973

>  <r_i_glide_energy>  (174) 
-25.5153

>  <r_i_glide_einternal>  (174) 
1.53458

>  <r_i_glide_intrahb_reward>  (174) 
-0

>  <i_i_glide_confnum>  (174) 
2

>  <i_i_glide_posenum>  (174) 
39

>  <r_i_glide_eff_state_penalty>  (174) 
0

>  <ligand_id>  (174) 
54

>  <original_smiles>  (174) 
C[N+]1(C)CCC23CCOC24C(OC41)C(=NCCO)c1ccc(O)cc13

>  <smiles>  (174) 
[H]Oc1c([H])c([H])c2c(c1[H])C13C([H])([H])C([H])([H])OC14C([H])(OC4([H])[N+](C([H])([H])[H])(C([H])([H])[H])C([H])([H])C3([H])[H])C2=NC([H])([H])C([H])([H])O[H]

$$$$
54:0:2
     RDKit          3D

 50 54  0  0  1  0  0  0  0  0999 V2000
    5.7978   -8.4477    5.4170 C   0  0  0  0  0  0  0  0  0  0  0  0
    4.7635   -7.8957    4.4960 N   0  0  0  0  0  0  0  0  0  0  0  0
    3.4435   -8.1125    5.1491 C   0  0  0  0  0  0  0  0  0  0  0  0
    4.9671   -6.4255    4.3531 C   0  0  0  0  0  0  0  0  0  0  0  0
    6.1730   -6.0566    3.4732 C   0  0  0  0  0  0  0  0  0  0  0  0
    5.9508   -6.4444    2.0010 C   0  0  1  0  0  0  0  0  0  0  0  0
    7.3023   -6.6499    1.3084 C   0  0  0  0  0  0  0  0  0  0  0  0
    7.5020   -8.1542    1.3309 C   0  0  0  0  0  0  0  0  0  0  0  0
    6.1809   -8.6511    1.1780 O   0  0  0  0  0  0  0  0  0  0  0  0
    5.2900   -7.8323    1.9341 C   0  0  2  0  0  0  0  0  0  0  0  0
    3.8379   -8.0211    1.4758 C   0  0  1  0  0  0  0  0  0  0  0  0
    3.5233   -8.8127    2.6520 O   0  0  0  0  0  0  0  0  0  0  0  0
    4.8597   -8.6290    3.1784 C   0  0  2  0  0  0  0  0  0  0  0  0
    3.0003   -6.7392    1.3780 C   0  0  0  0  0  0  0  0  0  0  0  0
    1.7365   -6.6624    1.5880 N   0  0  0  0  0  0  0  0  0  0  0  0
    0.9172   -7.8173    1.8909 C   0  0  0  0  0  0  0  0  0  0  0  0
   -0.5374   -7.4866    1.5277 C   0  0  0  0  0  0  0  0  0  0  0  0
   -1.3736   -8.6059    1.7213 O   0  0  0  0  0  0  0  0  0  0  0  0
    3.7536   -5.5241    0.9855 C   0  0  0  0  0  0  0  0  0  0  0  0
    3.0588   -4.4885    0.3089 C   0  0  0  0  0  0  0  0  0  0  0  0
    3.7040   -3.2986   -0.0583 C   0  0  0  0  0  0  0  0  0  0  0  0
    5.0610   -3.1204    0.2488 C   0  0  0  0  0  0  0  0  0  0  0  0
    5.6909   -1.9583   -0.0867 O   0  0  0  0  0  0  0  0  0  0  0  0
    5.7681   -4.1437    0.9138 C   0  0  0  0  0  0  0  0  0  0  0  0
    5.1324   -5.3548    1.2778 C   0  0  0  0  0  0  0  0  0  0  0  0
    5.8241   -7.8984    6.3624 H   0  0  0  0  0  0  0  0  0  0  0  0
    6.8010   -8.4104    4.9888 H   0  0  0  0  0  0  0  0  0  0  0  0
    5.5941   -9.4916    5.6623 H   0  0  0  0  0  0  0  0  0  0  0  0
    2.6292   -7.6733    4.5759 H   0  0  0  0  0  0  0  0  0  0  0  0
    3.4146   -7.6449    6.1319 H   0  0  0  0  0  0  0  0  0  0  0  0
    3.2301   -9.1719    5.2784 H   0  0  0  0  0  0  0  0  0  0  0  0
    4.0732   -5.9478    3.9487 H   0  0  0  0  0  0  0  0  0  0  0  0
    5.1035   -5.9795    5.3386 H   0  0  0  0  0  0  0  0  0  0  0  0
    6.3857   -4.9894    3.5547 H   0  0  0  0  0  0  0  0  0  0  0  0
    7.0654   -6.5485    3.8623 H   0  0  0  0  0  0  0  0  0  0  0  0
    7.2512   -6.3401    0.2643 H   0  0  0  0  0  0  0  0  0  0  0  0
    8.1277   -6.0977    1.7649 H   0  0  0  0  0  0  0  0  0  0  0  0
    8.1723   -8.4815    0.5318 H   0  0  0  0  0  0  0  0  0  0  0  0
    7.9084   -8.4864    2.2886 H   0  0  0  0  0  0  0  0  0  0  0  0
    3.7786   -8.6031    0.5561 H   0  0  0  0  0  0  0  0  0  0  0  0
    5.3726   -9.5880    3.2534 H   0  0  0  0  0  0  0  0  0  0  0  0
    1.2442   -8.6953    1.3329 H   0  0  0  0  0  0  0  0  0  0  0  0
    0.9644   -8.0581    2.9537 H   0  0  0  0  0  0  0  0  0  0  0  0
   -0.9174   -6.6586    2.1279 H   0  0  0  0  0  0  0  0  0  0  0  0
   -0.5892   -7.1831    0.4815 H   0  0  0  0  0  0  0  0  0  0  0  0
   -1.0602   -9.2912    1.1395 H   0  0  0  0  0  0  0  0  0  0  0  0
    2.0161   -4.6048    0.0545 H   0  0  0  0  0  0  0  0  0  0  0  0
    3.1423   -2.5300   -0.5737 H   0  0  0  0  0  0  0  0  0  0  0  0
    5.0767   -1.2926   -0.3704 H   0  0  0  0  0  0  0  0  0  0  0  0
    6.8119   -3.9853    1.1463 H   0  0  0  0  0  0  0  0  0  0  0  0
  1  2  1  0
  1 26  1  0
  1 27  1  0
  1 28  1  0
  2 13  1  0
  2  3  1  0
  2  4  1  0
  3 29  1  0
  3 30  1  0
  3 31  1  0
  4  5  1  0
  4 32  1  0
  4 33  1  0
  6  5  1  1
  5 34  1  0
  5 35  1  0
  6 10  1  0
  6 25  1  0
  6  7  1  0
  7  8  1  0
  7 36  1  0
  7 37  1  0
  8  9  1  0
  8 38  1  0
  8 39  1  0
 10  9  1  6
 10 13  1  0
 10 11  1  0
 11 12  1  0
 11 14  1  0
 11 40  1  6
 12 13  1  0
 13 41  1  1
 14 15  2  3
 14 19  1  0
 15 16  1  0
 16 17  1  0
 16 42  1  0
 16 43  1  0
 17 18  1  0
 17 44  1  0
 17 45  1  0
 18 46  1  0
 19 25  2  0
 19 20  1  0
 20 21  2  0
 20 47  1  0
 21 22  1  0
 21 48  1  0
 22 23  1  0
 22 24  2  0
 23 49  1  0
 24 25  1  0
 24 50  1  0
M  CHG  1   2   1
M  END
>  <i_m_ct_stereo_status>  (175) 
1

>  <s_m_source_file>  (175) 
/var/tmp/pbs.5076255.sched01/tmpgskxq70o/44i51uky9l.sdf

>  <i_m_source_file_index>  (175) 
42

>  <i_lp_mmshare_version>  (175) 
48012

>  <i_f3d_flags>  (175) 
0

>  <s_epik_input>  (175) 
W0NIMl0xW0NIMl1bTitdKFtDSDNdKShbQ0gzXSlbQ0BIXTJPW0NASF0oW0NAXTIoW0NAQF0xMzQpT1tDSDJdW0NIMl0zKS9DKD1OXFtDSDJdW0NIMl1bT0hdKWM1YzRbY0hdYyhbT0hdKVtjSF1bY0hdNQ==

>  <s_epik_cmdline>  (175) 
J2VwaWtfcHl0aG9uJywgJy1waHQnLCAnMi4wJywgJy1waCcsICc3LjAnLCAnLXRuJywgJzgnLCAnLW1hJywgJzIwMCcsICctaW1hZScsICc8aW5maWxlLm1hZT4nLCAnLW9tYWUnLCAnPG91dGZpbGUubWFlPic=

>  <r_lp_tautomer_probability>  (175) 
0.499996

>  <r_epik_Ionization_Penalty>  (175) 
0.0052131

>  <r_epik_Ionization_Penalty_Charging>  (175) 
0

>  <r_epik_Ionization_Penalty_Neutral>  (175) 
0.0052131

>  <r_epik_State_Penalty>  (175) 
0.41448

>  <r_epik_Charging_Adjusted_Penalty>  (175) 
0.41448

>  <i_epik_Tot_Q>  (175) 
1

>  <i_epik_Tot_abs_Q>  (175) 
1

>  <s_epik_Chemistry_Notes>  (175) 
This compound has an imine and may undergo hydrolysis. This compound contains an acetal/aminal-like group ( X-CH(R)-Y where X, Y are N, S, or O) that may be acid/base labile, releasing an aldehyde.

>  <s_lp_Force_Field>  (175) 
OPLS3e

>  <r_lp_Energy>  (175) 
60.2982

>  <b_lp_Chiralities_Consistent>  (175) 
1

>  <s_lp_Variant>  (175) 
54:0-1

>  <s_i_glide_gridfile>  (175) 
pfpi4k_grid

>  <i_i_glide_lignum>  (175) 
42

>  <i_i_glide_rotatable_bonds>  (175) 
4

>  <r_i_docking_score>  (175) 
-3.29723

>  <r_i_glide_ligand_efficiency>  (175) 
-0.131889

>  <r_i_glide_ligand_efficiency_sa>  (175) 
-0.385647

>  <r_i_glide_ligand_efficiency_ln>  (175) 
-0.781543

>  <r_i_glide_gscore>  (175) 
-3.29723

>  <r_i_glide_lipo>  (175) 
-0.332571

>  <r_i_glide_hbond>  (175) 
-0.319886

>  <r_i_glide_metal>  (175) 
-0

>  <r_i_glide_rewards>  (175) 
-1.11629

>  <r_i_glide_evdw>  (175) 
-20.3536

>  <r_i_glide_ecoul>  (175) 
-5.51356

>  <r_i_glide_erotb>  (175) 
0.318489

>  <r_i_glide_esite>  (175) 
-0.00225465

>  <r_i_glide_emodel>  (175) 
-33.3631

>  <r_i_glide_energy>  (175) 
-25.8672

>  <r_i_glide_einternal>  (175) 
0.306827

>  <r_i_glide_intrahb_reward>  (175) 
-0

>  <i_i_glide_confnum>  (175) 
2

>  <i_i_glide_posenum>  (175) 
21

>  <r_i_glide_eff_state_penalty>  (175) 
0

>  <ligand_id>  (175) 
54

>  <original_smiles>  (175) 
C[N+]1(C)CCC23CCOC24C(OC41)C(=NCCO)c1ccc(O)cc13

>  <smiles>  (175) 
[H]Oc1c([H])c([H])c2c(c1[H])C13C([H])([H])C([H])([H])OC14C([H])(OC4([H])[N+](C([H])([H])[H])(C([H])([H])[H])C([H])([H])C3([H])[H])C2=NC([H])([H])C([H])([H])O[H]

$$$$
54:1:0
     RDKit          3D

 50 54  0  0  1  0  0  0  0  0999 V2000
    3.1412   -1.4300   -2.4839 C   0  0  0  0  0  0  0  0  0  0  0  0
    3.3047   -2.6181   -1.5882 N   0  0  0  0  0  0  0  0  0  0  0  0
    2.1299   -3.5261   -1.8161 C   0  0  0  0  0  0  0  0  0  0  0  0
    4.5588   -3.3077   -2.0317 C   0  0  0  0  0  0  0  0  0  0  0  0
    4.9946   -4.4313   -1.0833 C   0  0  0  0  0  0  0  0  0  0  0  0
    5.4156   -3.9509    0.3054 C   0  0  1  0  0  0  0  0  0  0  0  0
    6.7481   -3.1777    0.2745 C   0  0  0  0  0  0  0  0  0  0  0  0
    6.3958   -1.7578    0.7008 C   0  0  0  0  0  0  0  0  0  0  0  0
    5.2125   -1.9213    1.4616 O   0  0  0  0  0  0  0  0  0  0  0  0
    4.4212   -2.8869    0.7794 C   0  0  2  0  0  0  0  0  0  0  0  0
    3.1821   -3.3020    1.5750 C   0  0  1  0  0  0  0  0  0  0  0  0
    2.2918   -2.6696    0.6193 O   0  0  0  0  0  0  0  0  0  0  0  0
    3.4185   -2.1581   -0.1502 C   0  0  2  0  0  0  0  0  0  0  0  0
    2.9823   -4.8081    1.6633 C   0  0  0  0  0  0  0  0  0  0  0  0
    1.8298   -5.3102    1.4323 N   0  0  0  0  0  0  0  0  0  0  0  0
    1.5903   -6.7445    1.3374 C   0  0  0  0  0  0  0  0  0  0  0  0
    0.7229   -7.2330    2.5083 C   0  0  0  0  0  0  0  0  0  0  0  0
   -0.5950   -6.7428    2.3813 O   0  0  0  0  0  0  0  0  0  0  0  0
    4.2440   -5.5241    1.9560 C   0  0  0  0  0  0  0  0  0  0  0  0
    4.2708   -6.5671    2.9011 C   0  0  0  0  0  0  0  0  0  0  0  0
    5.4379   -7.3148    3.1077 C   0  0  0  0  0  0  0  0  0  0  0  0
    6.5964   -7.0059    2.3752 C   0  0  0  0  0  0  0  0  0  0  0  0
    7.7305   -7.7374    2.5728 O   0  0  0  0  0  0  0  0  0  0  0  0
    6.5931   -5.9414    1.4570 C   0  0  0  0  0  0  0  0  0  0  0  0
    5.4292   -5.1574    1.2650 C   0  0  0  0  0  0  0  0  0  0  0  0
    3.0813   -1.7407   -3.5237 H   0  0  0  0  0  0  0  0  0  0  0  0
    3.9840   -0.7456   -2.3881 H   0  0  0  0  0  0  0  0  0  0  0  0
    2.2226   -0.8652   -2.3060 H   0  0  0  0  0  0  0  0  0  0  0  0
    2.1621   -4.4059   -1.1768 H   0  0  0  0  0  0  0  0  0  0  0  0
    2.0982   -3.8553   -2.8542 H   0  0  0  0  0  0  0  0  0  0  0  0
    1.1699   -3.0576   -1.6149 H   0  0  0  0  0  0  0  0  0  0  0  0
    4.4064   -3.7116   -3.0335 H   0  0  0  0  0  0  0  0  0  0  0  0
    5.3679   -2.5845   -2.1279 H   0  0  0  0  0  0  0  0  0  0  0  0
    4.2046   -5.1756   -1.0143 H   0  0  0  0  0  0  0  0  0  0  0  0
    5.8102   -4.9703   -1.5090 H   0  0  0  0  0  0  0  0  0  0  0  0
    7.4609   -3.5638    0.9985 H   0  0  0  0  0  0  0  0  0  0  0  0
    7.2422   -3.1991   -0.6977 H   0  0  0  0  0  0  0  0  0  0  0  0
    7.1943   -1.2964    1.2822 H   0  0  0  0  0  0  0  0  0  0  0  0
    6.1822   -1.1206   -0.1572 H   0  0  0  0  0  0  0  0  0  0  0  0
    3.1463   -2.8281    2.5535 H   0  0  0  0  0  0  0  0  0  0  0  0
    3.5198   -1.0754   -0.0476 H   0  0  0  0  0  0  0  0  0  0  0  0
    1.0810   -6.9514    0.4028 H   0  0  0  0  0  0  0  0  0  0  0  0
    2.4907   -7.3550    1.2651 H   0  0  0  0  0  0  0  0  0  0  0  0
    0.6851   -8.3231    2.4984 H   0  0  0  0  0  0  0  0  0  0  0  0
    1.1266   -6.9334    3.4778 H   0  0  0  0  0  0  0  0  0  0  0  0
   -1.1665   -7.3762    2.7946 H   0  0  0  0  0  0  0  0  0  0  0  0
    3.3843   -6.8315    3.4610 H   0  0  0  0  0  0  0  0  0  0  0  0
    5.4307   -8.1349    3.8109 H   0  0  0  0  0  0  0  0  0  0  0  0
    8.4843   -7.4603    2.0713 H   0  0  0  0  0  0  0  0  0  0  0  0
    7.4950   -5.7196    0.9082 H   0  0  0  0  0  0  0  0  0  0  0  0
  1  2  1  0
  1 26  1  0
  1 27  1  0
  1 28  1  0
  2 13  1  0
  2  3  1  0
  2  4  1  0
  3 29  1  0
  3 30  1  0
  3 31  1  0
  4  5  1  0
  4 32  1  0
  4 33  1  0
  6  5  1  6
  5 34  1  0
  5 35  1  0
  6 10  1  0
  6 25  1  0
  6  7  1  0
  7  8  1  0
  7 36  1  0
  7 37  1  0
  8  9  1  0
  8 38  1  0
  8 39  1  0
 10  9  1  1
 10 13  1  0
 10 11  1  0
 11 12  1  0
 11 14  1  0
 11 40  1  1
 12 13  1  0
 13 41  1  6
 14 15  2  3
 14 19  1  0
 15 16  1  0
 16 17  1  0
 16 42  1  0
 16 43  1  0
 17 18  1  0
 17 44  1  0
 17 45  1  0
 18 46  1  0
 19 25  2  0
 19 20  1  0
 20 21  2  0
 20 47  1  0
 21 22  1  0
 21 48  1  0
 22 23  1  0
 22 24  2  0
 23 49  1  0
 24 25  1  0
 24 50  1  0
M  CHG  1   2   1
M  END
>  <i_m_ct_stereo_status>  (176) 
1

>  <s_m_source_file>  (176) 
/var/tmp/pbs.5076255.sched01/tmpgskxq70o/44i51uky9l.sdf

>  <i_m_source_file_index>  (176) 
43

>  <i_lp_mmshare_version>  (176) 
48012

>  <i_f3d_flags>  (176) 
0

>  <s_epik_input>  (176) 
W0NIMl0xW0NIMl1bTitdKFtDSDNdKShbQ0gzXSlbQ0BIXTJPW0NASF0oW0NAXTIoW0NAQF0xMzQpT1tDSDJdW0NIMl0zKS9DKD1OXFtDSDJdW0NIMl1bT0hdKWM1YzRbY0hdYyhbT0hdKVtjSF1bY0hdNQ==

>  <s_epik_cmdline>  (176) 
J2VwaWtfcHl0aG9uJywgJy1waHQnLCAnMi4wJywgJy1waCcsICc3LjAnLCAnLXRuJywgJzgnLCAnLW1hJywgJzIwMCcsICctaW1hZScsICc8aW5maWxlLm1hZT4nLCAnLW9tYWUnLCAnPG91dGZpbGUubWFlPic=

>  <r_lp_tautomer_probability>  (176) 
0.499996

>  <r_epik_Ionization_Penalty>  (176) 
0.0052131

>  <r_epik_Ionization_Penalty_Charging>  (176) 
0

>  <r_epik_Ionization_Penalty_Neutral>  (176) 
0.0052131

>  <r_epik_State_Penalty>  (176) 
0.41448

>  <r_epik_Charging_Adjusted_Penalty>  (176) 
0.41448

>  <i_epik_Tot_Q>  (176) 
1

>  <i_epik_Tot_abs_Q>  (176) 
1

>  <s_epik_Chemistry_Notes>  (176) 
This compound has an imine and may undergo hydrolysis. This compound contains an acetal/aminal-like group ( X-CH(R)-Y where X, Y are N, S, or O) that may be acid/base labile, releasing an aldehyde.

>  <s_lp_Force_Field>  (176) 
OPLS3e

>  <r_lp_Energy>  (176) 
61.1779

>  <b_lp_Chiralities_Consistent>  (176) 
1

>  <s_lp_Variant>  (176) 
54:0-2

>  <s_i_glide_gridfile>  (176) 
pfpi4k_grid

>  <i_i_glide_lignum>  (176) 
43

>  <i_i_glide_rotatable_bonds>  (176) 
4

>  <r_i_docking_score>  (176) 
-3.85355

>  <r_i_glide_ligand_efficiency>  (176) 
-0.154142

>  <r_i_glide_ligand_efficiency_sa>  (176) 
-0.450714

>  <r_i_glide_ligand_efficiency_ln>  (176) 
-0.913408

>  <r_i_glide_gscore>  (176) 
-3.85355

>  <r_i_glide_lipo>  (176) 
-0.5912

>  <r_i_glide_hbond>  (176) 
-0.231836

>  <r_i_glide_metal>  (176) 
-0

>  <r_i_glide_rewards>  (176) 
-1.054

>  <r_i_glide_evdw>  (176) 
-17.9477

>  <r_i_glide_ecoul>  (176) 
-8.63522

>  <r_i_glide_erotb>  (176) 
0.318489

>  <r_i_glide_esite>  (176) 
-0.102333

>  <r_i_glide_emodel>  (176) 
-33.0612

>  <r_i_glide_energy>  (176) 
-26.583

>  <r_i_glide_einternal>  (176) 
2.27268

>  <r_i_glide_intrahb_reward>  (176) 
-0

>  <i_i_glide_confnum>  (176) 
6

>  <i_i_glide_posenum>  (176) 
5

>  <r_i_glide_eff_state_penalty>  (176) 
0

>  <ligand_id>  (176) 
54

>  <original_smiles>  (176) 
C[N+]1(C)CCC23CCOC24C(OC41)C(=NCCO)c1ccc(O)cc13

>  <smiles>  (176) 
[H]Oc1c([H])c([H])c2c(c1[H])C13C([H])([H])C([H])([H])OC14C([H])(OC4([H])[N+](C([H])([H])[H])(C([H])([H])[H])C([H])([H])C3([H])[H])C2=NC([H])([H])C([H])([H])O[H]

$$$$
54:1:1
     RDKit          3D

 50 54  0  0  1  0  0  0  0  0999 V2000
    2.8927   -1.2699   -2.7053 C   0  0  0  0  0  0  0  0  0  0  0  0
    3.3401   -2.3433   -1.7746 N   0  0  0  0  0  0  0  0  0  0  0  0
    2.3055   -3.4382   -1.8099 C   0  0  0  0  0  0  0  0  0  0  0  0
    4.6320   -2.8358   -2.3489 C   0  0  0  0  0  0  0  0  0  0  0  0
    5.3733   -3.8004   -1.4274 C   0  0  0  0  0  0  0  0  0  0  0  0
    5.8281   -3.1493   -0.1108 C   0  0  1  0  0  0  0  0  0  0  0  0
    6.9829   -2.1602   -0.3352 C   0  0  0  0  0  0  0  0  0  0  0  0
    6.4060   -0.8139    0.0623 C   0  0  0  0  0  0  0  0  0  0  0  0
    5.3800   -1.1104    0.9782 O   0  0  0  0  0  0  0  0  0  0  0  0
    4.7211   -2.2369    0.4358 C   0  0  2  0  0  0  0  0  0  0  0  0
    3.6785   -2.7853    1.3995 C   0  0  1  0  0  0  0  0  0  0  0  0
    2.5955   -2.3918    0.5260 O   0  0  0  0  0  0  0  0  0  0  0  0
    3.5192   -1.7542   -0.3962 C   0  0  2  0  0  0  0  0  0  0  0  0
    3.7569   -4.2831    1.6035 C   0  0  0  0  0  0  0  0  0  0  0  0
    2.6780   -4.9708    1.5841 N   0  0  0  0  0  0  0  0  0  0  0  0
    2.6915   -6.4253    1.5361 C   0  0  0  0  0  0  0  0  0  0  0  0
    1.2583   -6.9707    1.4889 C   0  0  0  0  0  0  0  0  0  0  0  0
    0.5440   -6.3084    0.4758 O   0  0  0  0  0  0  0  0  0  0  0  0
    5.1437   -4.7657    1.7502 C   0  0  0  0  0  0  0  0  0  0  0  0
    5.4763   -5.7050    2.7496 C   0  0  0  0  0  0  0  0  0  0  0  0
    6.7694   -6.2223    2.8410 C   0  0  0  0  0  0  0  0  0  0  0  0
    7.7516   -5.7658    1.9584 C   0  0  0  0  0  0  0  0  0  0  0  0
    9.0190   -6.2245    2.0533 O   0  0  0  0  0  0  0  0  0  0  0  0
    7.4652   -4.7850    0.9990 C   0  0  0  0  0  0  0  0  0  0  0  0
    6.1607   -4.2532    0.9016 C   0  0  0  0  0  0  0  0  0  0  0  0
    2.6843   -1.6486   -3.7078 H   0  0  0  0  0  0  0  0  0  0  0  0
    3.5859   -0.4351   -2.7680 H   0  0  0  0  0  0  0  0  0  0  0  0
    1.9941   -0.8337   -2.3255 H   0  0  0  0  0  0  0  0  0  0  0  0
    2.5535   -4.2580   -1.1421 H   0  0  0  0  0  0  0  0  0  0  0  0
    2.2075   -3.8409   -2.8157 H   0  0  0  0  0  0  0  0  0  0  0  0
    1.3254   -3.0578   -1.5234 H   0  0  0  0  0  0  0  0  0  0  0  0
    4.4239   -3.3205   -3.3001 H   0  0  0  0  0  0  0  0  0  0  0  0
    5.2624   -1.9806   -2.5737 H   0  0  0  0  0  0  0  0  0  0  0  0
    4.7200   -4.6530   -1.2146 H   0  0  0  0  0  0  0  0  0  0  0  0
    6.2193   -4.1949   -1.9697 H   0  0  0  0  0  0  0  0  0  0  0  0
    7.8392   -2.3382    0.3127 H   0  0  0  0  0  0  0  0  0  0  0  0
    7.3563   -2.1592   -1.3615 H   0  0  0  0  0  0  0  0  0  0  0  0
    7.1806   -0.2103    0.4864 H   0  0  0  0  0  0  0  0  0  0  0  0
    5.9578   -0.3110   -0.8004 H   0  0  0  0  0  0  0  0  0  0  0  0
    3.6688   -2.2438    2.3428 H   0  0  0  0  0  0  0  0  0  0  0  0
    3.4256   -0.6665   -0.3614 H   0  0  0  0  0  0  0  0  0  0  0  0
    3.2726   -6.7687    0.6808 H   0  0  0  0  0  0  0  0  0  0  0  0
    3.1377   -6.8839    2.4149 H   0  0  0  0  0  0  0  0  0  0  0  0
    1.2799   -8.0445    1.2943 H   0  0  0  0  0  0  0  0  0  0  0  0
    0.7696   -6.8213    2.4514 H   0  0  0  0  0  0  0  0  0  0  0  0
    1.1138   -6.3161   -0.2774 H   0  0  0  0  0  0  0  0  0  0  0  0
    4.7424   -6.0423    3.4726 H   0  0  0  0  0  0  0  0  0  0  0  0
    7.0043   -6.9512    3.6042 H   0  0  0  0  0  0  0  0  0  0  0  0
    9.1558   -7.1651    2.0796 H   0  0  0  0  0  0  0  0  0  0  0  0
    8.2548   -4.4426    0.3495 H   0  0  0  0  0  0  0  0  0  0  0  0
  1  2  1  0
  1 26  1  0
  1 27  1  0
  1 28  1  0
  2 13  1  0
  2  3  1  0
  2  4  1  0
  3 29  1  0
  3 30  1  0
  3 31  1  0
  4  5  1  0
  4 32  1  0
  4 33  1  0
  6  5  1  6
  5 34  1  0
  5 35  1  0
  6 10  1  0
  6 25  1  0
  6  7  1  0
  7  8  1  0
  7 36  1  0
  7 37  1  0
  8  9  1  0
  8 38  1  0
  8 39  1  0
 10  9  1  1
 10 13  1  0
 10 11  1  0
 11 12  1  0
 11 14  1  0
 11 40  1  1
 12 13  1  0
 13 41  1  6
 14 15  2  3
 14 19  1  0
 15 16  1  0
 16 17  1  0
 16 42  1  0
 16 43  1  0
 17 18  1  0
 17 44  1  0
 17 45  1  0
 18 46  1  0
 19 25  2  0
 19 20  1  0
 20 21  2  0
 20 47  1  0
 21 22  1  0
 21 48  1  0
 22 23  1  0
 22 24  2  0
 23 49  1  0
 24 25  1  0
 24 50  1  0
M  CHG  1   2   1
M  END
>  <i_m_ct_stereo_status>  (177) 
1

>  <s_m_source_file>  (177) 
/var/tmp/pbs.5076255.sched01/tmpgskxq70o/44i51uky9l.sdf

>  <i_m_source_file_index>  (177) 
43

>  <i_lp_mmshare_version>  (177) 
48012

>  <i_f3d_flags>  (177) 
0

>  <s_epik_input>  (177) 
W0NIMl0xW0NIMl1bTitdKFtDSDNdKShbQ0gzXSlbQ0BIXTJPW0NASF0oW0NAXTIoW0NAQF0xMzQpT1tDSDJdW0NIMl0zKS9DKD1OXFtDSDJdW0NIMl1bT0hdKWM1YzRbY0hdYyhbT0hdKVtjSF1bY0hdNQ==

>  <s_epik_cmdline>  (177) 
J2VwaWtfcHl0aG9uJywgJy1waHQnLCAnMi4wJywgJy1waCcsICc3LjAnLCAnLXRuJywgJzgnLCAnLW1hJywgJzIwMCcsICctaW1hZScsICc8aW5maWxlLm1hZT4nLCAnLW9tYWUnLCAnPG91dGZpbGUubWFlPic=

>  <r_lp_tautomer_probability>  (177) 
0.499996

>  <r_epik_Ionization_Penalty>  (177) 
0.0052131

>  <r_epik_Ionization_Penalty_Charging>  (177) 
0

>  <r_epik_Ionization_Penalty_Neutral>  (177) 
0.0052131

>  <r_epik_State_Penalty>  (177) 
0.41448

>  <r_epik_Charging_Adjusted_Penalty>  (177) 
0.41448

>  <i_epik_Tot_Q>  (177) 
1

>  <i_epik_Tot_abs_Q>  (177) 
1

>  <s_epik_Chemistry_Notes>  (177) 
This compound has an imine and may undergo hydrolysis. This compound contains an acetal/aminal-like group ( X-CH(R)-Y where X, Y are N, S, or O) that may be acid/base labile, releasing an aldehyde.

>  <s_lp_Force_Field>  (177) 
OPLS3e

>  <r_lp_Energy>  (177) 
61.1779

>  <b_lp_Chiralities_Consistent>  (177) 
1

>  <s_lp_Variant>  (177) 
54:0-2

>  <s_i_glide_gridfile>  (177) 
pfpi4k_grid

>  <i_i_glide_lignum>  (177) 
43

>  <i_i_glide_rotatable_bonds>  (177) 
4

>  <r_i_docking_score>  (177) 
-3.68371

>  <r_i_glide_ligand_efficiency>  (177) 
-0.147348

>  <r_i_glide_ligand_efficiency_sa>  (177) 
-0.430849

>  <r_i_glide_ligand_efficiency_ln>  (177) 
-0.87315

>  <r_i_glide_gscore>  (177) 
-3.68371

>  <r_i_glide_lipo>  (177) 
-0.588954

>  <r_i_glide_hbond>  (177) 
-0.301434

>  <r_i_glide_metal>  (177) 
-0

>  <r_i_glide_rewards>  (177) 
-1.06537

>  <r_i_glide_evdw>  (177) 
-18.1423

>  <r_i_glide_ecoul>  (177) 
-6.6838

>  <r_i_glide_erotb>  (177) 
0.318489

>  <r_i_glide_esite>  (177) 
-0.136749

>  <r_i_glide_emodel>  (177) 
-29.0143

>  <r_i_glide_energy>  (177) 
-24.8261

>  <r_i_glide_einternal>  (177) 
4.44688

>  <r_i_glide_intrahb_reward>  (177) 
-0

>  <i_i_glide_confnum>  (177) 
6

>  <i_i_glide_posenum>  (177) 
1

>  <r_i_glide_eff_state_penalty>  (177) 
0

>  <ligand_id>  (177) 
54

>  <original_smiles>  (177) 
C[N+]1(C)CCC23CCOC24C(OC41)C(=NCCO)c1ccc(O)cc13

>  <smiles>  (177) 
[H]Oc1c([H])c([H])c2c(c1[H])C13C([H])([H])C([H])([H])OC14C([H])(OC4([H])[N+](C([H])([H])[H])(C([H])([H])[H])C([H])([H])C3([H])[H])C2=NC([H])([H])C([H])([H])O[H]

$$$$
55:0:0
     RDKit          3D

 64 68  0  0  1  0  0  0  0  0999 V2000
    3.5659   -3.1335   -0.4485 C   0  0  0  0  0  0  0  0  0  0  0  0
    5.1139   -3.1930   -0.3329 C   0  0  1  0  0  0  0  0  0  0  0  0
    5.7785   -3.2562   -1.7597 C   0  0  0  0  0  0  0  0  0  0  0  0
    5.0015   -3.8578   -2.7806 O   0  0  0  0  0  0  0  0  0  0  0  0
    5.6464   -1.9119    0.3739 C   0  0  1  0  0  0  0  0  0  0  0  0
    5.3631   -0.7251   -0.3375 O   0  0  0  0  0  0  0  0  0  0  0  0
    5.0860   -1.7481    1.7828 C   0  0  0  0  0  0  0  0  0  0  0  0
    5.5127   -2.9138    2.6798 C   0  0  0  0  0  0  0  0  0  0  0  0
    5.4119   -4.3781    2.1223 C   0  0  2  0  0  0  0  0  0  0  0  0
    6.6642   -5.0970    2.7155 C   0  0  0  0  0  0  0  0  0  0  0  0
    5.6113   -4.4027    0.5524 C   0  0  1  0  0  0  0  0  0  0  0  0
    5.2997   -5.7928   -0.0015 C   0  0  0  0  0  0  0  0  0  0  0  0
    3.9522   -6.3598    0.4358 C   0  0  0  0  0  0  0  0  0  0  0  0
    3.7883   -6.5638    1.9604 C   0  0  1  0  0  0  0  0  0  0  0  0
    4.6504   -7.7837    2.3730 C   0  0  0  0  0  0  0  0  0  0  0  0
    4.1712   -5.2261    2.6928 C   0  0  2  0  0  0  0  0  0  0  0  0
    2.8289   -4.5829    3.1514 C   0  0  1  0  0  0  0  0  0  0  0  0
    2.5634   -3.2529    2.8008 O   0  0  0  0  0  0  0  0  0  0  0  0
    1.6944   -5.4574    2.5985 C   0  0  2  0  0  0  0  0  0  0  0  0
    0.6714   -5.5681    3.5817 O   0  0  0  0  0  0  0  0  0  0  0  0
    0.7331   -6.8050    4.2169 C   0  0  1  0  0  0  0  0  0  0  0  0
   -0.3532   -7.5916    3.8376 O   0  0  0  0  0  0  0  0  0  0  0  0
   -0.3612   -8.8933    4.4146 C   0  0  0  0  0  0  0  0  0  0  0  0
    0.9405   -9.6514    4.1094 C   0  0  0  0  0  0  0  0  0  0  0  0
    0.9795  -10.8740    4.1801 O   0  0  0  0  0  0  0  0  0  0  0  0
    2.0176   -8.9241    3.7961 N   0  0  0  0  0  0  0  0  0  0  0  0
    2.0487   -7.4621    3.7479 C   0  0  1  0  0  0  0  0  0  0  0  0
    2.2799   -6.8421    2.3532 C   0  0  2  0  0  0  0  0  0  0  0  0
    1.4877   -7.6178    1.2650 C   0  0  0  0  0  0  0  0  0  0  0  0
    3.2108   -2.1541   -0.7659 H   0  0  0  0  0  0  0  0  0  0  0  0
    3.0972   -3.3487    0.4990 H   0  0  0  0  0  0  0  0  0  0  0  0
    3.1442   -3.8616   -1.1383 H   0  0  0  0  0  0  0  0  0  0  0  0
    5.9994   -2.2638   -2.1507 H   0  0  0  0  0  0  0  0  0  0  0  0
    6.7422   -3.7662   -1.7203 H   0  0  0  0  0  0  0  0  0  0  0  0
    4.5644   -4.6272   -2.4364 H   0  0  0  0  0  0  0  0  0  0  0  0
    6.7361   -1.9725    0.4431 H   0  0  0  0  0  0  0  0  0  0  0  0
    4.4209   -0.6151   -0.3620 H   0  0  0  0  0  0  0  0  0  0  0  0
    5.4864   -0.8338    2.2185 H   0  0  0  0  0  0  0  0  0  0  0  0
    4.0132   -1.5924    1.7562 H   0  0  0  0  0  0  0  0  0  0  0  0
    6.5552   -2.6644    2.8303 H   0  0  0  0  0  0  0  0  0  0  0  0
    5.0517   -2.8404    3.6630 H   0  0  0  0  0  0  0  0  0  0  0  0
    6.7532   -6.1406    2.4281 H   0  0  0  0  0  0  0  0  0  0  0  0
    6.6574   -5.0694    3.8075 H   0  0  0  0  0  0  0  0  0  0  0  0
    7.6064   -4.6716    2.3745 H   0  0  0  0  0  0  0  0  0  0  0  0
    6.6933   -4.3230    0.4145 H   0  0  0  0  0  0  0  0  0  0  0  0
    5.3314   -5.7840   -1.0831 H   0  0  0  0  0  0  0  0  0  0  0  0
    6.0934   -6.4684    0.3035 H   0  0  0  0  0  0  0  0  0  0  0  0
    3.1610   -5.7312    0.0382 H   0  0  0  0  0  0  0  0  0  0  0  0
    3.8575   -7.3201   -0.0629 H   0  0  0  0  0  0  0  0  0  0  0  0
    4.7638   -7.8588    3.4512 H   0  0  0  0  0  0  0  0  0  0  0  0
    5.6492   -7.7852    1.9530 H   0  0  0  0  0  0  0  0  0  0  0  0
    4.2017   -8.7107    2.0190 H   0  0  0  0  0  0  0  0  0  0  0  0
    4.5280   -5.5711    3.6631 H   0  0  0  0  0  0  0  0  0  0  0  0
    2.7989   -4.6120    4.2450 H   0  0  0  0  0  0  0  0  0  0  0  0
    3.2267   -2.7088    3.1993 H   0  0  0  0  0  0  0  0  0  0  0  0
    1.3051   -5.0474    1.6695 H   0  0  0  0  0  0  0  0  0  0  0  0
    0.7044   -6.6673    5.2979 H   0  0  0  0  0  0  0  0  0  0  0  0
   -0.5096   -8.8200    5.4924 H   0  0  0  0  0  0  0  0  0  0  0  0
   -1.2042   -9.4491    4.0055 H   0  0  0  0  0  0  0  0  0  0  0  0
    2.8774   -9.4289    3.6199 H   0  0  0  0  0  0  0  0  0  0  0  0
    2.8235   -7.1281    4.4339 H   0  0  0  0  0  0  0  0  0  0  0  0
    0.4654   -7.8326    1.5656 H   0  0  0  0  0  0  0  0  0  0  0  0
    1.9498   -8.5727    1.0179 H   0  0  0  0  0  0  0  0  0  0  0  0
    1.3872   -7.0403    0.3504 H   0  0  0  0  0  0  0  0  0  0  0  0
  2  1  1  6
  1 30  1  0
  1 31  1  0
  1 32  1  0
  2 11  1  0
  2  3  1  0
  2  5  1  0
  3  4  1  0
  3 33  1  0
  3 34  1  0
  4 35  1  0
  5  6  1  0
  5  7  1  0
  5 36  1  1
  6 37  1  0
  7  8  1  0
  7 38  1  0
  7 39  1  0
  8  9  1  0
  8 40  1  0
  8 41  1  0
  9 16  1  0
  9 10  1  1
  9 11  1  0
 10 42  1  0
 10 43  1  0
 10 44  1  0
 11 12  1  0
 11 45  1  1
 12 13  1  0
 12 46  1  0
 12 47  1  0
 13 14  1  0
 13 48  1  0
 13 49  1  0
 14 28  1  0
 14 15  1  1
 14 16  1  0
 15 50  1  0
 15 51  1  0
 15 52  1  0
 16 17  1  0
 16 53  1  1
 17 18  1  0
 17 19  1  0
 17 54  1  1
 18 55  1  0
 19 28  1  0
 19 20  1  0
 19 56  1  6
 20 21  1  0
 21 27  1  0
 21 22  1  0
 21 57  1  1
 22 23  1  0
 23 24  1  0
 23 58  1  0
 23 59  1  0
 24 25  2  0
 24 26  1  0
 26 27  1  0
 26 60  1  0
 27 28  1  0
 27 61  1  1
 28 29  1  6
 29 62  1  0
 29 63  1  0
 29 64  1  0
M  END
>  <i_m_ct_stereo_status>  (178) 
1

>  <s_m_source_file>  (178) 
/var/tmp/pbs.5076255.sched01/tmpgskxq70o/44i51uky9l.sdf

>  <i_m_source_file_index>  (178) 
44

>  <i_lp_mmshare_version>  (178) 
48012

>  <i_f3d_flags>  (178) 
0

>  <s_epik_input>  (178) 
W0NIMl0xW0NIMl1bQ0BIXShbT0hdKVtDQEBdKFtDSDNdKShbQ0gyXVtPSF0pW0NAQEhdKFtDQEBdMTJbQ0gzXSlbQ0gyXVtDSDJdW0NAQF0zKFtDSDNdKVtDQEBIXTJbQ0BASF0oW09IXSlbQ0BIXTRbQ0BdMyhbQ0gzXSlbQ0BIXTVbQ0BASF0oTzQpT1tDSDJdQyg9TylbTkhdNQ==

>  <s_epik_cmdline>  (178) 
J2VwaWtfcHl0aG9uJywgJy1waHQnLCAnMi4wJywgJy1waCcsICc3LjAnLCAnLXRuJywgJzgnLCAnLW1hJywgJzIwMCcsICctaW1hZScsICc8aW5maWxlLm1hZT4nLCAnLW9tYWUnLCAnPG91dGZpbGUubWFlPic=

>  <r_lp_tautomer_probability>  (178) 
1

>  <r_epik_Ionization_Penalty>  (178) 
2.00826e-06

>  <r_epik_Ionization_Penalty_Charging>  (178) 
0

>  <r_epik_Ionization_Penalty_Neutral>  (178) 
2.00826e-06

>  <r_epik_State_Penalty>  (178) 
-0

>  <r_epik_Charging_Adjusted_Penalty>  (178) 
0

>  <i_epik_Tot_Q>  (178) 
0

>  <i_epik_Tot_abs_Q>  (178) 
0

>  <s_epik_Chemistry_Notes>  (178) 
This compound contains an acetal/aminal-like group ( X-CH(R)-Y where X, Y are N, S, or O) that may be acid/base labile, releasing an aldehyde.

>  <s_lp_Force_Field>  (178) 
OPLS3e

>  <r_lp_Energy>  (178) 
83.6164

>  <b_lp_Chiralities_Consistent>  (178) 
1

>  <s_lp_Variant>  (178) 
55:0-1

>  <s_i_glide_gridfile>  (178) 
pfpi4k_grid

>  <i_i_glide_lignum>  (178) 
44

>  <i_i_glide_rotatable_bonds>  (178) 
4

>  <r_i_docking_score>  (178) 
-2.54694

>  <r_i_glide_ligand_efficiency>  (178) 
-0.0878257

>  <r_i_glide_ligand_efficiency_sa>  (178) 
-0.269828

>  <r_i_glide_ligand_efficiency_ln>  (178) 
-0.583186

>  <r_i_glide_gscore>  (178) 
-2.54694

>  <r_i_glide_lipo>  (178) 
-0.671023

>  <r_i_glide_hbond>  (178) 
-0.199932

>  <r_i_glide_metal>  (178) 
-0

>  <r_i_glide_rewards>  (178) 
-0.616934

>  <r_i_glide_evdw>  (178) 
-19.3189

>  <r_i_glide_ecoul>  (178) 
-1.04958

>  <r_i_glide_erotb>  (178) 
0.117419

>  <r_i_glide_esite>  (178) 
-0.0530887

>  <r_i_glide_emodel>  (178) 
-22.4874

>  <r_i_glide_energy>  (178) 
-20.3685

>  <r_i_glide_einternal>  (178) 
3.09418

>  <r_i_glide_intrahb_reward>  (178) 
-0

>  <i_i_glide_confnum>  (178) 
2

>  <i_i_glide_posenum>  (178) 
7

>  <r_i_glide_eff_state_penalty>  (178) 
0

>  <ligand_id>  (178) 
55

>  <original_smiles>  (178) 
CC1(CO)C(O)CCC2(C)C1CCC1(C)C2C(O)C2OC3OCC(=O)NC3C21C

>  <smiles>  (178) 
[H]OC([H])([H])C1(C([H])([H])[H])C([H])(O[H])C([H])([H])C([H])([H])C2(C([H])([H])[H])C1([H])C([H])([H])C([H])([H])C1(C([H])([H])[H])C2([H])C([H])(O[H])C2([H])OC3([H])OC([H])([H])C(=O)N([H])C3([H])C21C([H])([H])[H]

$$$$
55:0:1
     RDKit          3D

 64 68  0  0  1  0  0  0  0  0999 V2000
    2.7513   -2.2001    0.7052 C   0  0  0  0  0  0  0  0  0  0  0  0
    4.2852   -2.2621    0.5416 C   0  0  1  0  0  0  0  0  0  0  0  0
    4.5981   -1.8179   -0.9248 C   0  0  0  0  0  0  0  0  0  0  0  0
    5.9795   -1.8451   -1.2408 O   0  0  0  0  0  0  0  0  0  0  0  0
    4.9684   -1.2632    1.5108 C   0  0  1  0  0  0  0  0  0  0  0  0
    4.5593    0.0691    1.2832 O   0  0  0  0  0  0  0  0  0  0  0  0
    4.6562   -1.5939    2.9684 C   0  0  0  0  0  0  0  0  0  0  0  0
    5.1594   -2.9946    3.3411 C   0  0  0  0  0  0  0  0  0  0  0  0
    4.9062   -4.1848    2.3575 C   0  0  2  0  0  0  0  0  0  0  0  0
    6.2300   -5.0122    2.4592 C   0  0  0  0  0  0  0  0  0  0  0  0
    4.8438   -3.7016    0.8528 C   0  0  1  0  0  0  0  0  0  0  0  0
    4.3478   -4.8298   -0.0738 C   0  0  0  0  0  0  0  0  0  0  0  0
    3.0542   -5.4949    0.4160 C   0  0  0  0  0  0  0  0  0  0  0  0
    3.1696   -6.2052    1.7820 C   0  0  1  0  0  0  0  0  0  0  0  0
    4.0377   -7.4810    1.5995 C   0  0  0  0  0  0  0  0  0  0  0  0
    3.7504   -5.1931    2.8316 C   0  0  2  0  0  0  0  0  0  0  0  0
    2.5457   -4.7524    3.7193 C   0  0  1  0  0  0  0  0  0  0  0  0
    2.2887   -3.3837    3.8720 O   0  0  0  0  0  0  0  0  0  0  0  0
    1.2810   -5.3968    3.1307 C   0  0  2  0  0  0  0  0  0  0  0  0
    0.4567   -5.8541    4.1984 O   0  0  0  0  0  0  0  0  0  0  0  0
    0.5693   -7.2281    4.3497 C   0  0  1  0  0  0  0  0  0  0  0  0
   -0.5960   -7.8469    3.9192 O   0  0  0  0  0  0  0  0  0  0  0  0
   -0.5627   -9.2647    4.0387 C   0  0  0  0  0  0  0  0  0  0  0  0
    0.6289   -9.8712    3.2842 C   0  0  0  0  0  0  0  0  0  0  0  0
    0.6343  -11.0548    2.9664 O   0  0  0  0  0  0  0  0  0  0  0  0
    1.6651   -9.0641    3.0154 N   0  0  0  0  0  0  0  0  0  0  0  0
    1.7430   -7.6689    3.4528 C   0  0  1  0  0  0  0  0  0  0  0  0
    1.7419   -6.6129    2.3235 C   0  0  2  0  0  0  0  0  0  0  0  0
    0.7346   -7.0001    1.1961 C   0  0  0  0  0  0  0  0  0  0  0  0
    2.3874   -1.1781    0.8281 H   0  0  0  0  0  0  0  0  0  0  0  0
    2.4138   -2.7441    1.5752 H   0  0  0  0  0  0  0  0  0  0  0  0
    2.2364   -2.6339   -0.1541 H   0  0  0  0  0  0  0  0  0  0  0  0
    4.0594   -2.4285   -1.6497 H   0  0  0  0  0  0  0  0  0  0  0  0
    4.2356   -0.8039   -1.1071 H   0  0  0  0  0  0  0  0  0  0  0  0
    6.2591   -2.7555   -1.2236 H   0  0  0  0  0  0  0  0  0  0  0  0
    6.0495   -1.3003    1.3709 H   0  0  0  0  0  0  0  0  0  0  0  0
    4.7794    0.3079    0.3896 H   0  0  0  0  0  0  0  0  0  0  0  0
    5.1738   -0.8727    3.6032 H   0  0  0  0  0  0  0  0  0  0  0  0
    3.6016   -1.4370    3.1795 H   0  0  0  0  0  0  0  0  0  0  0  0
    6.2077   -2.8226    3.3968 H   0  0  0  0  0  0  0  0  0  0  0  0
    4.8742   -3.2560    4.3572 H   0  0  0  0  0  0  0  0  0  0  0  0
    6.2599   -5.8787    1.8052 H   0  0  0  0  0  0  0  0  0  0  0  0
    6.4196   -5.3648    3.4751 H   0  0  0  0  0  0  0  0  0  0  0  0
    7.0975   -4.4226    2.1593 H   0  0  0  0  0  0  0  0  0  0  0  0
    5.8874   -3.5833    0.5607 H   0  0  0  0  0  0  0  0  0  0  0  0
    4.1989   -4.4778   -1.0896 H   0  0  0  0  0  0  0  0  0  0  0  0
    5.1370   -5.5726   -0.1774 H   0  0  0  0  0  0  0  0  0  0  0  0
    2.2606   -4.7531    0.4390 H   0  0  0  0  0  0  0  0  0  0  0  0
    2.7616   -6.2314   -0.3234 H   0  0  0  0  0  0  0  0  0  0  0  0
    4.3392   -7.9104    2.5529 H   0  0  0  0  0  0  0  0  0  0  0  0
    4.9507   -7.3226    1.0357 H   0  0  0  0  0  0  0  0  0  0  0  0
    3.4942   -8.2498    1.0516 H   0  0  0  0  0  0  0  0  0  0  0  0
    4.2640   -5.8360    3.5481 H   0  0  0  0  0  0  0  0  0  0  0  0
    2.7116   -5.1465    4.7265 H   0  0  0  0  0  0  0  0  0  0  0  0
    3.0393   -2.9952    4.3053 H   0  0  0  0  0  0  0  0  0  0  0  0
    0.7411   -4.6797    2.5156 H   0  0  0  0  0  0  0  0  0  0  0  0
    0.7325   -7.4701    5.3988 H   0  0  0  0  0  0  0  0  0  0  0  0
   -0.5157   -9.5347    5.0944 H   0  0  0  0  0  0  0  0  0  0  0  0
   -1.4820   -9.6599    3.6173 H   0  0  0  0  0  0  0  0  0  0  0  0
    2.4569   -9.4762    2.5450 H   0  0  0  0  0  0  0  0  0  0  0  0
    2.6435   -7.5739    4.0583 H   0  0  0  0  0  0  0  0  0  0  0  0
   -0.2276   -7.3068    1.5948 H   0  0  0  0  0  0  0  0  0  0  0  0
    1.0905   -7.8351    0.5952 H   0  0  0  0  0  0  0  0  0  0  0  0
    0.5191   -6.1818    0.5140 H   0  0  0  0  0  0  0  0  0  0  0  0
  2  1  1  6
  1 30  1  0
  1 31  1  0
  1 32  1  0
  2 11  1  0
  2  3  1  0
  2  5  1  0
  3  4  1  0
  3 33  1  0
  3 34  1  0
  4 35  1  0
  5  6  1  0
  5  7  1  0
  5 36  1  1
  6 37  1  0
  7  8  1  0
  7 38  1  0
  7 39  1  0
  8  9  1  0
  8 40  1  0
  8 41  1  0
  9 16  1  0
  9 10  1  6
  9 11  1  0
 10 42  1  0
 10 43  1  0
 10 44  1  0
 11 12  1  0
 11 45  1  6
 12 13  1  0
 12 46  1  0
 12 47  1  0
 13 14  1  0
 13 48  1  0
 13 49  1  0
 14 28  1  0
 14 15  1  6
 14 16  1  0
 15 50  1  0
 15 51  1  0
 15 52  1  0
 16 17  1  0
 16 53  1  1
 17 18  1  0
 17 19  1  0
 17 54  1  1
 18 55  1  0
 19 28  1  0
 19 20  1  0
 19 56  1  6
 20 21  1  0
 21 27  1  0
 21 22  1  0
 21 57  1  1
 22 23  1  0
 23 24  1  0
 23 58  1  0
 23 59  1  0
 24 25  2  0
 24 26  1  0
 26 27  1  0
 26 60  1  0
 27 28  1  0
 27 61  1  1
 28 29  1  6
 29 62  1  0
 29 63  1  0
 29 64  1  0
M  END
>  <i_m_ct_stereo_status>  (179) 
1

>  <s_m_source_file>  (179) 
/var/tmp/pbs.5076255.sched01/tmpgskxq70o/44i51uky9l.sdf

>  <i_m_source_file_index>  (179) 
44

>  <i_lp_mmshare_version>  (179) 
48012

>  <i_f3d_flags>  (179) 
0

>  <s_epik_input>  (179) 
W0NIMl0xW0NIMl1bQ0BIXShbT0hdKVtDQEBdKFtDSDNdKShbQ0gyXVtPSF0pW0NAQEhdKFtDQEBdMTJbQ0gzXSlbQ0gyXVtDSDJdW0NAQF0zKFtDSDNdKVtDQEBIXTJbQ0BASF0oW09IXSlbQ0BIXTRbQ0BdMyhbQ0gzXSlbQ0BIXTVbQ0BASF0oTzQpT1tDSDJdQyg9TylbTkhdNQ==

>  <s_epik_cmdline>  (179) 
J2VwaWtfcHl0aG9uJywgJy1waHQnLCAnMi4wJywgJy1waCcsICc3LjAnLCAnLXRuJywgJzgnLCAnLW1hJywgJzIwMCcsICctaW1hZScsICc8aW5maWxlLm1hZT4nLCAnLW9tYWUnLCAnPG91dGZpbGUubWFlPic=

>  <r_lp_tautomer_probability>  (179) 
1

>  <r_epik_Ionization_Penalty>  (179) 
2.00826e-06

>  <r_epik_Ionization_Penalty_Charging>  (179) 
0

>  <r_epik_Ionization_Penalty_Neutral>  (179) 
2.00826e-06

>  <r_epik_State_Penalty>  (179) 
-0

>  <r_epik_Charging_Adjusted_Penalty>  (179) 
0

>  <i_epik_Tot_Q>  (179) 
0

>  <i_epik_Tot_abs_Q>  (179) 
0

>  <s_epik_Chemistry_Notes>  (179) 
This compound contains an acetal/aminal-like group ( X-CH(R)-Y where X, Y are N, S, or O) that may be acid/base labile, releasing an aldehyde.

>  <s_lp_Force_Field>  (179) 
OPLS3e

>  <r_lp_Energy>  (179) 
83.6164

>  <b_lp_Chiralities_Consistent>  (179) 
1

>  <s_lp_Variant>  (179) 
55:0-1

>  <s_i_glide_gridfile>  (179) 
pfpi4k_grid

>  <i_i_glide_lignum>  (179) 
44

>  <i_i_glide_rotatable_bonds>  (179) 
4

>  <r_i_docking_score>  (179) 
-2.4185

>  <r_i_glide_ligand_efficiency>  (179) 
-0.0833966

>  <r_i_glide_ligand_efficiency_sa>  (179) 
-0.256221

>  <r_i_glide_ligand_efficiency_ln>  (179) 
-0.553775

>  <r_i_glide_gscore>  (179) 
-2.4185

>  <r_i_glide_lipo>  (179) 
-0.346942

>  <r_i_glide_hbond>  (179) 
0

>  <r_i_glide_metal>  (179) 
-0

>  <r_i_glide_rewards>  (179) 
-0.616934

>  <r_i_glide_evdw>  (179) 
-22.7794

>  <r_i_glide_ecoul>  (179) 
-2.70356

>  <r_i_glide_erotb>  (179) 
0.117419

>  <r_i_glide_esite>  (179) 
-0.0275386

>  <r_i_glide_emodel>  (179) 
-28.938

>  <r_i_glide_energy>  (179) 
-25.483

>  <r_i_glide_einternal>  (179) 
0.701017

>  <r_i_glide_intrahb_reward>  (179) 
-0

>  <i_i_glide_confnum>  (179) 
2

>  <i_i_glide_posenum>  (179) 
40

>  <r_i_glide_eff_state_penalty>  (179) 
0

>  <ligand_id>  (179) 
55

>  <original_smiles>  (179) 
CC1(CO)C(O)CCC2(C)C1CCC1(C)C2C(O)C2OC3OCC(=O)NC3C21C

>  <smiles>  (179) 
[H]OC([H])([H])C1(C([H])([H])[H])C([H])(O[H])C([H])([H])C([H])([H])C2(C([H])([H])[H])C1([H])C([H])([H])C([H])([H])C1(C([H])([H])[H])C2([H])C([H])(O[H])C2([H])OC3([H])OC([H])([H])C(=O)N([H])C3([H])C21C([H])([H])[H]

$$$$
55:0:2
     RDKit          3D

 64 68  0  0  1  0  0  0  0  0999 V2000
    2.5980   -3.2541   -1.4168 C   0  0  0  0  0  0  0  0  0  0  0  0
    4.0736   -2.9472   -1.7507 C   0  0  1  0  0  0  0  0  0  0  0  0
    4.3939   -3.4826   -3.1885 C   0  0  0  0  0  0  0  0  0  0  0  0
    3.4624   -3.0850   -4.1753 O   0  0  0  0  0  0  0  0  0  0  0  0
    4.3366   -1.4130   -1.7202 C   0  0  1  0  0  0  0  0  0  0  0  0
    3.5725   -0.6712   -2.6498 O   0  0  0  0  0  0  0  0  0  0  0  0
    4.0816   -0.8203   -0.3361 C   0  0  0  0  0  0  0  0  0  0  0  0
    5.0218   -1.3991    0.7206 C   0  0  0  0  0  0  0  0  0  0  0  0
    5.2109   -2.9540    0.7428 C   0  0  2  0  0  0  0  0  0  0  0  0
    6.7181   -3.0696    1.1112 C   0  0  0  0  0  0  0  0  0  0  0  0
    5.0686   -3.5931   -0.7012 C   0  0  1  0  0  0  0  0  0  0  0  0
    5.0715   -5.1342   -0.5928 C   0  0  0  0  0  0  0  0  0  0  0  0
    4.0394   -5.6968    0.3867 C   0  0  0  0  0  0  0  0  0  0  0  0
    4.2844   -5.2814    1.8594 C   0  0  1  0  0  0  0  0  0  0  0  0
    5.5365   -6.0330    2.3872 C   0  0  0  0  0  0  0  0  0  0  0  0
    4.4143   -3.7124    1.9248 C   0  0  2  0  0  0  0  0  0  0  0  0
    3.0658   -3.2027    2.5241 C   0  0  1  0  0  0  0  0  0  0  0  0
    2.3541   -2.2190    1.8290 O   0  0  0  0  0  0  0  0  0  0  0  0
    2.1406   -4.4187    2.6908 C   0  0  2  0  0  0  0  0  0  0  0  0
    1.4341   -4.3012    3.9225 O   0  0  0  0  0  0  0  0  0  0  0  0
    1.9820   -5.1375    4.8886 C   0  0  1  0  0  0  0  0  0  0  0  0
    1.1231   -6.2014    5.1561 O   0  0  0  0  0  0  0  0  0  0  0  0
    1.6173   -7.1210    6.1268 C   0  0  0  0  0  0  0  0  0  0  0  0
    2.9927   -7.6715    5.7269 C   0  0  0  0  0  0  0  0  0  0  0  0
    3.4144   -8.7089    6.2260 O   0  0  0  0  0  0  0  0  0  0  0  0
    3.7163   -6.9567    4.8537 N   0  0  0  0  0  0  0  0  0  0  0  0
    3.2996   -5.6696    4.2943 C   0  0  1  0  0  0  0  0  0  0  0  0
    3.0401   -5.6497    2.7671 C   0  0  2  0  0  0  0  0  0  0  0  0
    2.3053   -6.9445    2.3052 C   0  0  0  0  0  0  0  0  0  0  0  0
    1.9022   -2.6055   -1.9409 H   0  0  0  0  0  0  0  0  0  0  0  0
    2.3957   -3.1771   -0.3575 H   0  0  0  0  0  0  0  0  0  0  0  0
    2.3095   -4.2554   -1.7014 H   0  0  0  0  0  0  0  0  0  0  0  0
    5.3906   -3.1629   -3.4970 H   0  0  0  0  0  0  0  0  0  0  0  0
    4.4009   -4.5681   -3.2424 H   0  0  0  0  0  0  0  0  0  0  0  0
    2.5988   -3.3443   -3.8805 H   0  0  0  0  0  0  0  0  0  0  0  0
    5.3775   -1.2310   -1.9771 H   0  0  0  0  0  0  0  0  0  0  0  0
    2.6582   -0.7369   -2.4061 H   0  0  0  0  0  0  0  0  0  0  0  0
    4.2432    0.2538   -0.3427 H   0  0  0  0  0  0  0  0  0  0  0  0
    3.0317   -0.9171   -0.0808 H   0  0  0  0  0  0  0  0  0  0  0  0
    5.9732   -0.8995    0.5267 H   0  0  0  0  0  0  0  0  0  0  0  0
    4.7407   -1.0310    1.7020 H   0  0  0  0  0  0  0  0  0  0  0  0
    7.0805   -4.0912    1.1553 H   0  0  0  0  0  0  0  0  0  0  0  0
    6.8963   -2.6074    2.0735 H   0  0  0  0  0  0  0  0  0  0  0  0
    7.3601   -2.5614    0.3868 H   0  0  0  0  0  0  0  0  0  0  0  0
    6.0182   -3.3900   -1.1963 H   0  0  0  0  0  0  0  0  0  0  0  0
    4.9485   -5.6168   -1.5503 H   0  0  0  0  0  0  0  0  0  0  0  0
    6.0643   -5.4590   -0.2940 H   0  0  0  0  0  0  0  0  0  0  0  0
    3.0443   -5.3994    0.0683 H   0  0  0  0  0  0  0  0  0  0  0  0
    4.0650   -6.7835    0.2949 H   0  0  0  0  0  0  0  0  0  0  0  0
    5.8883   -5.6284    3.3338 H   0  0  0  0  0  0  0  0  0  0  0  0
    6.3866   -6.0086    1.7156 H   0  0  0  0  0  0  0  0  0  0  0  0
    5.3207   -7.0902    2.5363 H   0  0  0  0  0  0  0  0  0  0  0  0
    5.0563   -3.5515    2.7908 H   0  0  0  0  0  0  0  0  0  0  0  0
    3.2759   -2.7776    3.5102 H   0  0  0  0  0  0  0  0  0  0  0  0
    2.9101   -1.4619    1.7208 H   0  0  0  0  0  0  0  0  0  0  0  0
    1.4422   -4.5001    1.8594 H   0  0  0  0  0  0  0  0  0  0  0  0
    2.1450   -4.5776    5.8071 H   0  0  0  0  0  0  0  0  0  0  0  0
    1.6854   -6.6281    7.0971 H   0  0  0  0  0  0  0  0  0  0  0  0
    0.9083   -7.9422    6.2380 H   0  0  0  0  0  0  0  0  0  0  0  0
    4.6276   -7.3102    4.6097 H   0  0  0  0  0  0  0  0  0  0  0  0
    4.0688   -4.9411    4.5451 H   0  0  0  0  0  0  0  0  0  0  0  0
    1.4734   -7.1969    2.9595 H   0  0  0  0  0  0  0  0  0  0  0  0
    2.9708   -7.8080    2.2923 H   0  0  0  0  0  0  0  0  0  0  0  0
    1.8664   -6.8536    1.3111 H   0  0  0  0  0  0  0  0  0  0  0  0
  2  1  1  1
  1 30  1  0
  1 31  1  0
  1 32  1  0
  2 11  1  0
  2  3  1  0
  2  5  1  0
  3  4  1  0
  3 33  1  0
  3 34  1  0
  4 35  1  0
  5  6  1  0
  5  7  1  0
  5 36  1  6
  6 37  1  0
  7  8  1  0
  7 38  1  0
  7 39  1  0
  8  9  1  0
  8 40  1  0
  8 41  1  0
  9 16  1  0
  9 10  1  1
  9 11  1  0
 10 42  1  0
 10 43  1  0
 10 44  1  0
 11 12  1  0
 11 45  1  6
 12 13  1  0
 12 46  1  0
 12 47  1  0
 13 14  1  0
 13 48  1  0
 13 49  1  0
 14 28  1  0
 14 15  1  1
 14 16  1  0
 15 50  1  0
 15 51  1  0
 15 52  1  0
 16 17  1  0
 16 53  1  1
 17 18  1  0
 17 19  1  0
 17 54  1  1
 18 55  1  0
 19 28  1  0
 19 20  1  0
 19 56  1  6
 20 21  1  0
 21 27  1  0
 21 22  1  0
 21 57  1  1
 22 23  1  0
 23 24  1  0
 23 58  1  0
 23 59  1  0
 24 25  2  0
 24 26  1  0
 26 27  1  0
 26 60  1  0
 27 28  1  0
 27 61  1  6
 28 29  1  6
 29 62  1  0
 29 63  1  0
 29 64  1  0
M  END
>  <i_m_ct_stereo_status>  (180) 
1

>  <s_m_source_file>  (180) 
/var/tmp/pbs.5076255.sched01/tmpgskxq70o/44i51uky9l.sdf

>  <i_m_source_file_index>  (180) 
44

>  <i_lp_mmshare_version>  (180) 
48012

>  <i_f3d_flags>  (180) 
0

>  <s_epik_input>  (180) 
W0NIMl0xW0NIMl1bQ0BIXShbT0hdKVtDQEBdKFtDSDNdKShbQ0gyXVtPSF0pW0NAQEhdKFtDQEBdMTJbQ0gzXSlbQ0gyXVtDSDJdW0NAQF0zKFtDSDNdKVtDQEBIXTJbQ0BASF0oW09IXSlbQ0BIXTRbQ0BdMyhbQ0gzXSlbQ0BIXTVbQ0BASF0oTzQpT1tDSDJdQyg9TylbTkhdNQ==

>  <s_epik_cmdline>  (180) 
J2VwaWtfcHl0aG9uJywgJy1waHQnLCAnMi4wJywgJy1waCcsICc3LjAnLCAnLXRuJywgJzgnLCAnLW1hJywgJzIwMCcsICctaW1hZScsICc8aW5maWxlLm1hZT4nLCAnLW9tYWUnLCAnPG91dGZpbGUubWFlPic=

>  <r_lp_tautomer_probability>  (180) 
1

>  <r_epik_Ionization_Penalty>  (180) 
2.00826e-06

>  <r_epik_Ionization_Penalty_Charging>  (180) 
0

>  <r_epik_Ionization_Penalty_Neutral>  (180) 
2.00826e-06

>  <r_epik_State_Penalty>  (180) 
-0

>  <r_epik_Charging_Adjusted_Penalty>  (180) 
0

>  <i_epik_Tot_Q>  (180) 
0

>  <i_epik_Tot_abs_Q>  (180) 
0

>  <s_epik_Chemistry_Notes>  (180) 
This compound contains an acetal/aminal-like group ( X-CH(R)-Y where X, Y are N, S, or O) that may be acid/base labile, releasing an aldehyde.

>  <s_lp_Force_Field>  (180) 
OPLS3e

>  <r_lp_Energy>  (180) 
83.6164

>  <b_lp_Chiralities_Consistent>  (180) 
1

>  <s_lp_Variant>  (180) 
55:0-1

>  <s_i_glide_gridfile>  (180) 
pfpi4k_grid

>  <i_i_glide_lignum>  (180) 
44

>  <i_i_glide_rotatable_bonds>  (180) 
4

>  <r_i_docking_score>  (180) 
-2.39732

>  <r_i_glide_ligand_efficiency>  (180) 
-0.0826663

>  <r_i_glide_ligand_efficiency_sa>  (180) 
-0.253977

>  <r_i_glide_ligand_efficiency_ln>  (180) 
-0.548926

>  <r_i_glide_gscore>  (180) 
-2.39732

>  <r_i_glide_lipo>  (180) 
-0.468593

>  <r_i_glide_hbond>  (180) 
0

>  <r_i_glide_metal>  (180) 
-0

>  <r_i_glide_rewards>  (180) 
-0.616934

>  <r_i_glide_evdw>  (180) 
-20.6578

>  <r_i_glide_ecoul>  (180) 
-2.63511

>  <r_i_glide_erotb>  (180) 
0.117419

>  <r_i_glide_esite>  (180) 
-0.00105998

>  <r_i_glide_emodel>  (180) 
-26.2354

>  <r_i_glide_energy>  (180) 
-23.2929

>  <r_i_glide_einternal>  (180) 
1.52692

>  <r_i_glide_intrahb_reward>  (180) 
-0

>  <i_i_glide_confnum>  (180) 
4

>  <i_i_glide_posenum>  (180) 
1

>  <r_i_glide_eff_state_penalty>  (180) 
0

>  <ligand_id>  (180) 
55

>  <original_smiles>  (180) 
CC1(CO)C(O)CCC2(C)C1CCC1(C)C2C(O)C2OC3OCC(=O)NC3C21C

>  <smiles>  (180) 
[H]OC([H])([H])C1(C([H])([H])[H])C([H])(O[H])C([H])([H])C([H])([H])C2(C([H])([H])[H])C1([H])C([H])([H])C([H])([H])C1(C([H])([H])[H])C2([H])C([H])(O[H])C2([H])OC3([H])OC([H])([H])C(=O)N([H])C3([H])C21C([H])([H])[H]

$$$$
56:0:0
     RDKit          3D

 36 37  0  0  1  0  0  0  0  0999 V2000
    2.9628  -10.0305    2.3518 C   0  0  0  0  0  0  0  0  0  0  0  0
    3.0806   -8.5264    2.6389 C   0  0  0  0  0  0  0  0  0  0  0  0
    3.2280   -8.2499    4.1414 C   0  0  0  0  0  0  0  0  0  0  0  0
    1.9394   -7.7865    2.0922 N   0  0  0  0  0  0  0  0  0  0  0  0
    0.6295   -7.9774    2.3049 C   0  0  0  0  0  0  0  0  0  0  0  0
   -0.1859   -7.1000    1.7169 N   0  0  0  0  0  0  0  0  0  0  0  0
    0.6573   -6.2588    1.0362 N   0  0  0  0  0  0  0  0  0  0  0  0
    1.9060   -6.6836    1.3082 C   0  0  0  0  0  0  0  0  0  0  0  0
    3.3712   -5.8647    0.7394 S   0  0  0  0  0  0  0  0  0  0  0  0
    2.6227   -4.2734    0.2634 C   0  0  0  0  0  0  0  0  0  0  0  0
    3.5857   -3.2642   -0.3817 C   0  0  0  0  0  0  0  0  0  0  0  0
    4.5934   -2.9493    0.2498 O   0  0  0  0  0  0  0  0  0  0  0  0
    3.2868   -2.6866   -1.5735 N   0  0  0  0  0  0  0  0  0  0  0  0
    2.2020   -3.0797   -2.4863 C   0  0  0  0  0  0  0  0  0  0  0  0
    2.7978   -3.3663   -3.8654 C   0  0  0  0  0  0  0  0  0  0  0  0
    3.4747   -2.2155   -4.3402 O   0  0  0  0  0  0  0  0  0  0  0  0
    4.5510   -1.8381   -3.5033 C   0  0  0  0  0  0  0  0  0  0  0  0
    4.0250   -1.5213   -2.0936 C   0  0  0  0  0  0  0  0  0  0  0  0
    3.8656  -10.5548    2.6660 H   0  0  0  0  0  0  0  0  0  0  0  0
    2.8383  -10.2270    1.2852 H   0  0  0  0  0  0  0  0  0  0  0  0
    2.1228  -10.4930    2.8748 H   0  0  0  0  0  0  0  0  0  0  0  0
    3.9887   -8.1794    2.1492 H   0  0  0  0  0  0  0  0  0  0  0  0
    4.0932   -8.7698    4.5529 H   0  0  0  0  0  0  0  0  0  0  0  0
    2.3532   -8.5819    4.7042 H   0  0  0  0  0  0  0  0  0  0  0  0
    3.3613   -7.1844    4.3355 H   0  0  0  0  0  0  0  0  0  0  0  0
    0.2625   -8.7750    2.9344 H   0  0  0  0  0  0  0  0  0  0  0  0
    1.7782   -4.5032   -0.3612 H   0  0  0  0  0  0  0  0  0  0  0  0
    2.2365   -3.8130    1.1769 H   0  0  0  0  0  0  0  0  0  0  0  0
    1.6748   -3.9914   -2.2332 H   0  0  0  0  0  0  0  0  0  0  0  0
    1.4563   -2.2798   -2.5530 H   0  0  0  0  0  0  0  0  0  0  0  0
    3.4852   -4.2100   -3.8156 H   0  0  0  0  0  0  0  0  0  0  0  0
    1.9946   -3.6411   -4.5443 H   0  0  0  0  0  0  0  0  0  0  0  0
    5.2998   -2.6312   -3.4716 H   0  0  0  0  0  0  0  0  0  0  0  0
    5.0107   -0.9610   -3.9605 H   0  0  0  0  0  0  0  0  0  0  0  0
    3.3579   -0.6607   -2.1458 H   0  0  0  0  0  0  0  0  0  0  0  0
    4.8591   -1.2037   -1.4672 H   0  0  0  0  0  0  0  0  0  0  0  0
  1  2  1  0
  1 19  1  0
  1 20  1  0
  1 21  1  0
  2  3  1  0
  2  4  1  0
  2 22  1  0
  3 23  1  0
  3 24  1  0
  3 25  1  0
  4  8  1  0
  4  5  1  0
  5  6  2  0
  5 26  1  0
  6  7  1  0
  7  8  2  0
  8  9  1  0
  9 10  1  0
 10 11  1  0
 10 27  1  0
 10 28  1  0
 11 12  2  0
 11 13  1  0
 13 18  1  0
 13 14  1  0
 14 15  1  0
 14 29  1  0
 14 30  1  0
 15 16  1  0
 15 31  1  0
 15 32  1  0
 16 17  1  0
 17 18  1  0
 17 33  1  0
 17 34  1  0
 18 35  1  0
 18 36  1  0
M  END
>  <i_m_ct_stereo_status>  (181) 
1

>  <s_m_source_file>  (181) 
/var/tmp/pbs.5076255.sched01/tmpi2d1958y/88otlks1nw.sdf

>  <i_m_source_file_index>  (181) 
1

>  <i_lp_mmshare_version>  (181) 
48012

>  <i_f3d_flags>  (181) 
0

>  <s_epik_input>  (181) 
W0NIM11bQ0hdKFtDSDNdKW4xW2NIXW5uYzFTW0NIMl1DKD1PKU4yW0NIMl1bQ0gyXU9bQ0gyXVtDSDJdMg==

>  <s_epik_cmdline>  (181) 
J2VwaWtfcHl0aG9uJywgJy1waHQnLCAnMi4wJywgJy1waCcsICc3LjAnLCAnLXRuJywgJzgnLCAnLW1hJywgJzIwMCcsICctaW1hZScsICc8aW5maWxlLm1hZT4nLCAnLW9tYWUnLCAnPG91dGZpbGUubWFlPic=

>  <r_lp_tautomer_probability>  (181) 
1

>  <r_epik_Ionization_Penalty>  (181) 
2.31291e-07

>  <r_epik_Ionization_Penalty_Charging>  (181) 
0

>  <r_epik_Ionization_Penalty_Neutral>  (181) 
2.31291e-07

>  <r_epik_State_Penalty>  (181) 
-0

>  <r_epik_Charging_Adjusted_Penalty>  (181) 
0

>  <i_epik_Tot_Q>  (181) 
0

>  <i_epik_Tot_abs_Q>  (181) 
0

>  <s_lp_Force_Field>  (181) 
OPLS3e

>  <r_lp_Energy>  (181) 
13.3708

>  <b_lp_Chiralities_Consistent>  (181) 
1

>  <s_lp_Variant>  (181) 
56:0-1

>  <s_i_glide_gridfile>  (181) 
pfpi4k_grid

>  <i_i_glide_lignum>  (181) 
1

>  <i_i_glide_rotatable_bonds>  (181) 
5

>  <r_i_docking_score>  (181) 
-4.2523

>  <r_i_glide_ligand_efficiency>  (181) 
-0.236239

>  <r_i_glide_ligand_efficiency_sa>  (181) 
-0.619121

>  <r_i_glide_ligand_efficiency_ln>  (181) 
-1.09303

>  <r_i_glide_gscore>  (181) 
-4.2523

>  <r_i_glide_lipo>  (181) 
-0.337945

>  <r_i_glide_hbond>  (181) 
-0.32

>  <r_i_glide_metal>  (181) 
-0

>  <r_i_glide_rewards>  (181) 
-1.60646

>  <r_i_glide_evdw>  (181) 
-25.1258

>  <r_i_glide_ecoul>  (181) 
-7.61216

>  <r_i_glide_erotb>  (181) 
0.734078

>  <r_i_glide_esite>  (181) 
-0.323859

>  <r_i_glide_emodel>  (181) 
-40.1434

>  <r_i_glide_energy>  (181) 
-32.738

>  <r_i_glide_einternal>  (181) 
3.50542

>  <r_i_glide_intrahb_reward>  (181) 
-0

>  <i_i_glide_confnum>  (181) 
1

>  <i_i_glide_posenum>  (181) 
40

>  <r_i_glide_eff_state_penalty>  (181) 
0

>  <ligand_id>  (181) 
56

>  <original_smiles>  (181) 
CC(C)n1cnnc1SCC(=O)N1CCOCC1

>  <smiles>  (181) 
[H]c1nnc(SC([H])([H])C(=O)N2C([H])([H])C([H])([H])OC([H])([H])C2([H])[H])n1C([H])(C([H])([H])[H])C([H])([H])[H]

$$$$
56:0:1
     RDKit          3D

 36 37  0  0  1  0  0  0  0  0999 V2000
    0.8706  -10.7940    3.5404 C   0  0  0  0  0  0  0  0  0  0  0  0
    1.2837   -9.3560    3.8907 C   0  0  0  0  0  0  0  0  0  0  0  0
    0.9912   -9.0348    5.3665 C   0  0  0  0  0  0  0  0  0  0  0  0
    0.6354   -8.3745    3.0125 N   0  0  0  0  0  0  0  0  0  0  0  0
   -0.6685   -8.0476    2.9538 C   0  0  0  0  0  0  0  0  0  0  0  0
   -0.9647   -7.0633    2.1021 N   0  0  0  0  0  0  0  0  0  0  0  0
    0.2379   -6.7301    1.5194 N   0  0  0  0  0  0  0  0  0  0  0  0
    1.1571   -7.5333    2.0836 C   0  0  0  0  0  0  0  0  0  0  0  0
    2.8903   -7.4706    1.6972 S   0  0  0  0  0  0  0  0  0  0  0  0
    2.9425   -5.8126    0.9387 C   0  0  0  0  0  0  0  0  0  0  0  0
    4.3057   -5.3109    0.4403 C   0  0  0  0  0  0  0  0  0  0  0  0
    5.3078   -6.0061    0.6321 O   0  0  0  0  0  0  0  0  0  0  0  0
    4.3519   -4.1234   -0.2102 N   0  0  0  0  0  0  0  0  0  0  0  0
    3.2080   -3.2165   -0.4145 C   0  0  0  0  0  0  0  0  0  0  0  0
    3.0461   -2.9365   -1.9161 C   0  0  0  0  0  0  0  0  0  0  0  0
    4.2494   -2.3840   -2.4389 O   0  0  0  0  0  0  0  0  0  0  0  0
    5.3535   -3.2694   -2.2892 C   0  0  0  0  0  0  0  0  0  0  0  0
    5.5836   -3.5752   -0.7963 C   0  0  0  0  0  0  0  0  0  0  0  0
    1.4346  -11.5128    4.1331 H   0  0  0  0  0  0  0  0  0  0  0  0
    1.0535  -11.0186    2.4893 H   0  0  0  0  0  0  0  0  0  0  0  0
   -0.1831  -10.9733    3.7403 H   0  0  0  0  0  0  0  0  0  0  0  0
    2.3631   -9.2878    3.7556 H   0  0  0  0  0  0  0  0  0  0  0  0
    1.4966   -9.7333    6.0312 H   0  0  0  0  0  0  0  0  0  0  0  0
   -0.0750   -9.0925    5.5940 H   0  0  0  0  0  0  0  0  0  0  0  0
    1.3310   -8.0307    5.6231 H   0  0  0  0  0  0  0  0  0  0  0  0
   -1.4088   -8.5254    3.5822 H   0  0  0  0  0  0  0  0  0  0  0  0
    2.2633   -5.8363    0.0864 H   0  0  0  0  0  0  0  0  0  0  0  0
    2.5627   -5.1007    1.6745 H   0  0  0  0  0  0  0  0  0  0  0  0
    2.2544   -3.5940   -0.0492 H   0  0  0  0  0  0  0  0  0  0  0  0
    3.3798   -2.2854    0.1292 H   0  0  0  0  0  0  0  0  0  0  0  0
    2.7908   -3.8481   -2.4554 H   0  0  0  0  0  0  0  0  0  0  0  0
    2.2214   -2.2471   -2.0825 H   0  0  0  0  0  0  0  0  0  0  0  0
    5.1720   -4.1879   -2.8511 H   0  0  0  0  0  0  0  0  0  0  0  0
    6.2356   -2.7956   -2.7226 H   0  0  0  0  0  0  0  0  0  0  0  0
    5.8686   -2.6654   -0.2674 H   0  0  0  0  0  0  0  0  0  0  0  0
    6.4318   -4.2542   -0.7047 H   0  0  0  0  0  0  0  0  0  0  0  0
  1  2  1  0
  1 19  1  0
  1 20  1  0
  1 21  1  0
  2  3  1  0
  2  4  1  0
  2 22  1  0
  3 23  1  0
  3 24  1  0
  3 25  1  0
  4  8  1  0
  4  5  1  0
  5  6  2  0
  5 26  1  0
  6  7  1  0
  7  8  2  0
  8  9  1  0
  9 10  1  0
 10 11  1  0
 10 27  1  0
 10 28  1  0
 11 12  2  0
 11 13  1  0
 13 18  1  0
 13 14  1  0
 14 15  1  0
 14 29  1  0
 14 30  1  0
 15 16  1  0
 15 31  1  0
 15 32  1  0
 16 17  1  0
 17 18  1  0
 17 33  1  0
 17 34  1  0
 18 35  1  0
 18 36  1  0
M  END
>  <i_m_ct_stereo_status>  (182) 
1

>  <s_m_source_file>  (182) 
/var/tmp/pbs.5076255.sched01/tmpi2d1958y/88otlks1nw.sdf

>  <i_m_source_file_index>  (182) 
1

>  <i_lp_mmshare_version>  (182) 
48012

>  <i_f3d_flags>  (182) 
0

>  <s_epik_input>  (182) 
W0NIM11bQ0hdKFtDSDNdKW4xW2NIXW5uYzFTW0NIMl1DKD1PKU4yW0NIMl1bQ0gyXU9bQ0gyXVtDSDJdMg==

>  <s_epik_cmdline>  (182) 
J2VwaWtfcHl0aG9uJywgJy1waHQnLCAnMi4wJywgJy1waCcsICc3LjAnLCAnLXRuJywgJzgnLCAnLW1hJywgJzIwMCcsICctaW1hZScsICc8aW5maWxlLm1hZT4nLCAnLW9tYWUnLCAnPG91dGZpbGUubWFlPic=

>  <r_lp_tautomer_probability>  (182) 
1

>  <r_epik_Ionization_Penalty>  (182) 
2.31291e-07

>  <r_epik_Ionization_Penalty_Charging>  (182) 
0

>  <r_epik_Ionization_Penalty_Neutral>  (182) 
2.31291e-07

>  <r_epik_State_Penalty>  (182) 
-0

>  <r_epik_Charging_Adjusted_Penalty>  (182) 
0

>  <i_epik_Tot_Q>  (182) 
0

>  <i_epik_Tot_abs_Q>  (182) 
0

>  <s_lp_Force_Field>  (182) 
OPLS3e

>  <r_lp_Energy>  (182) 
13.3708

>  <b_lp_Chiralities_Consistent>  (182) 
1

>  <s_lp_Variant>  (182) 
56:0-1

>  <s_i_glide_gridfile>  (182) 
pfpi4k_grid

>  <i_i_glide_lignum>  (182) 
1

>  <i_i_glide_rotatable_bonds>  (182) 
5

>  <r_i_docking_score>  (182) 
-3.76412

>  <r_i_glide_ligand_efficiency>  (182) 
-0.209118

>  <r_i_glide_ligand_efficiency_sa>  (182) 
-0.548043

>  <r_i_glide_ligand_efficiency_ln>  (182) 
-0.967547

>  <r_i_glide_gscore>  (182) 
-3.76412

>  <r_i_glide_lipo>  (182) 
-0.387567

>  <r_i_glide_hbond>  (182) 
0

>  <r_i_glide_metal>  (182) 
-0

>  <r_i_glide_rewards>  (182) 
-1.63824

>  <r_i_glide_evdw>  (182) 
-24.5832

>  <r_i_glide_ecoul>  (182) 
-6.13388

>  <r_i_glide_erotb>  (182) 
0.734078

>  <r_i_glide_esite>  (182) 
-0.323146

>  <r_i_glide_emodel>  (182) 
-37.9999

>  <r_i_glide_energy>  (182) 
-30.717

>  <r_i_glide_einternal>  (182) 
1.88512

>  <r_i_glide_intrahb_reward>  (182) 
-0

>  <i_i_glide_confnum>  (182) 
1

>  <i_i_glide_posenum>  (182) 
25

>  <r_i_glide_eff_state_penalty>  (182) 
0

>  <ligand_id>  (182) 
56

>  <original_smiles>  (182) 
CC(C)n1cnnc1SCC(=O)N1CCOCC1

>  <smiles>  (182) 
[H]c1nnc(SC([H])([H])C(=O)N2C([H])([H])C([H])([H])OC([H])([H])C2([H])[H])n1C([H])(C([H])([H])[H])C([H])([H])[H]

$$$$
56:0:2
     RDKit          3D

 36 37  0  0  1  0  0  0  0  0999 V2000
    0.6738  -10.8061    3.3561 C   0  0  0  0  0  0  0  0  0  0  0  0
    1.6229   -9.5978    3.2017 C   0  0  0  0  0  0  0  0  0  0  0  0
    2.1387   -9.1305    4.5745 C   0  0  0  0  0  0  0  0  0  0  0  0
    0.9906   -8.4987    2.4910 N   0  0  0  0  0  0  0  0  0  0  0  0
   -0.3109   -8.1385    2.4630 C   0  0  0  0  0  0  0  0  0  0  0  0
   -0.5866   -7.0418    1.7692 N   0  0  0  0  0  0  0  0  0  0  0  0
    0.6251   -6.6296    1.2773 N   0  0  0  0  0  0  0  0  0  0  0  0
    1.5372   -7.4950    1.7514 C   0  0  0  0  0  0  0  0  0  0  0  0
    3.2854   -7.3442    1.5081 S   0  0  0  0  0  0  0  0  0  0  0  0
    3.3166   -5.6333    0.8744 C   0  0  0  0  0  0  0  0  0  0  0  0
    4.6765   -5.1089    0.3879 C   0  0  0  0  0  0  0  0  0  0  0  0
    5.6977   -5.5626    0.8971 O   0  0  0  0  0  0  0  0  0  0  0  0
    4.7144   -4.1600   -0.5927 N   0  0  0  0  0  0  0  0  0  0  0  0
    5.9754   -3.7226   -1.2079 C   0  0  0  0  0  0  0  0  0  0  0  0
    6.0956   -2.1914   -1.1746 C   0  0  0  0  0  0  0  0  0  0  0  0
    4.9774   -1.5963   -1.8116 O   0  0  0  0  0  0  0  0  0  0  0  0
    3.7620   -1.9546   -1.1657 C   0  0  0  0  0  0  0  0  0  0  0  0
    3.5599   -3.4792   -1.2039 C   0  0  0  0  0  0  0  0  0  0  0  0
    1.1920  -11.6587    3.7888 H   0  0  0  0  0  0  0  0  0  0  0  0
    0.2702  -11.1186    2.3933 H   0  0  0  0  0  0  0  0  0  0  0  0
   -0.1674  -10.5796    4.0115 H   0  0  0  0  0  0  0  0  0  0  0  0
    2.4807   -9.9334    2.6096 H   0  0  0  0  0  0  0  0  0  0  0  0
    2.6370   -9.9406    5.1027 H   0  0  0  0  0  0  0  0  0  0  0  0
    1.3255   -8.7753    5.2088 H   0  0  0  0  0  0  0  0  0  0  0  0
    2.8542   -8.3152    4.4641 H   0  0  0  0  0  0  0  0  0  0  0  0
   -1.0747   -8.7022    2.9813 H   0  0  0  0  0  0  0  0  0  0  0  0
    2.6092   -5.6333    0.0502 H   0  0  0  0  0  0  0  0  0  0  0  0
    2.9667   -4.9664    1.6641 H   0  0  0  0  0  0  0  0  0  0  0  0
    6.8589   -4.1360   -0.7201 H   0  0  0  0  0  0  0  0  0  0  0  0
    5.9952   -4.0602   -2.2433 H   0  0  0  0  0  0  0  0  0  0  0  0
    6.1821   -1.8294   -0.1480 H   0  0  0  0  0  0  0  0  0  0  0  0
    6.9911   -1.8776   -1.7109 H   0  0  0  0  0  0  0  0  0  0  0  0
    3.7582   -1.6017   -0.1321 H   0  0  0  0  0  0  0  0  0  0  0  0
    2.9330   -1.4649   -1.6718 H   0  0  0  0  0  0  0  0  0  0  0  0
    3.4503   -3.8280   -2.2342 H   0  0  0  0  0  0  0  0  0  0  0  0
    2.6086   -3.6497   -0.7025 H   0  0  0  0  0  0  0  0  0  0  0  0
  1  2  1  0
  1 19  1  0
  1 20  1  0
  1 21  1  0
  2  3  1  0
  2  4  1  0
  2 22  1  0
  3 23  1  0
  3 24  1  0
  3 25  1  0
  4  8  1  0
  4  5  1  0
  5  6  2  0
  5 26  1  0
  6  7  1  0
  7  8  2  0
  8  9  1  0
  9 10  1  0
 10 11  1  0
 10 27  1  0
 10 28  1  0
 11 12  2  0
 11 13  1  0
 13 18  1  0
 13 14  1  0
 14 15  1  0
 14 29  1  0
 14 30  1  0
 15 16  1  0
 15 31  1  0
 15 32  1  0
 16 17  1  0
 17 18  1  0
 17 33  1  0
 17 34  1  0
 18 35  1  0
 18 36  1  0
M  END
>  <i_m_ct_stereo_status>  (183) 
1

>  <s_m_source_file>  (183) 
/var/tmp/pbs.5076255.sched01/tmpi2d1958y/88otlks1nw.sdf

>  <i_m_source_file_index>  (183) 
1

>  <i_lp_mmshare_version>  (183) 
48012

>  <i_f3d_flags>  (183) 
0

>  <s_epik_input>  (183) 
W0NIM11bQ0hdKFtDSDNdKW4xW2NIXW5uYzFTW0NIMl1DKD1PKU4yW0NIMl1bQ0gyXU9bQ0gyXVtDSDJdMg==

>  <s_epik_cmdline>  (183) 
J2VwaWtfcHl0aG9uJywgJy1waHQnLCAnMi4wJywgJy1waCcsICc3LjAnLCAnLXRuJywgJzgnLCAnLW1hJywgJzIwMCcsICctaW1hZScsICc8aW5maWxlLm1hZT4nLCAnLW9tYWUnLCAnPG91dGZpbGUubWFlPic=

>  <r_lp_tautomer_probability>  (183) 
1

>  <r_epik_Ionization_Penalty>  (183) 
2.31291e-07

>  <r_epik_Ionization_Penalty_Charging>  (183) 
0

>  <r_epik_Ionization_Penalty_Neutral>  (183) 
2.31291e-07

>  <r_epik_State_Penalty>  (183) 
-0

>  <r_epik_Charging_Adjusted_Penalty>  (183) 
0

>  <i_epik_Tot_Q>  (183) 
0

>  <i_epik_Tot_abs_Q>  (183) 
0

>  <s_lp_Force_Field>  (183) 
OPLS3e

>  <r_lp_Energy>  (183) 
13.3708

>  <b_lp_Chiralities_Consistent>  (183) 
1

>  <s_lp_Variant>  (183) 
56:0-1

>  <s_i_glide_gridfile>  (183) 
pfpi4k_grid

>  <i_i_glide_lignum>  (183) 
1

>  <i_i_glide_rotatable_bonds>  (183) 
5

>  <r_i_docking_score>  (183) 
-3.57428

>  <r_i_glide_ligand_efficiency>  (183) 
-0.198571

>  <r_i_glide_ligand_efficiency_sa>  (183) 
-0.520403

>  <r_i_glide_ligand_efficiency_ln>  (183) 
-0.91875

>  <r_i_glide_gscore>  (183) 
-3.57428

>  <r_i_glide_lipo>  (183) 
-0.261023

>  <r_i_glide_hbond>  (183) 
0

>  <r_i_glide_metal>  (183) 
-0

>  <r_i_glide_rewards>  (183) 
-1.67475

>  <r_i_glide_evdw>  (183) 
-24.2879

>  <r_i_glide_ecoul>  (183) 
-5.68056

>  <r_i_glide_erotb>  (183) 
0.734078

>  <r_i_glide_esite>  (183) 
-0.306097

>  <r_i_glide_emodel>  (183) 
-36.8049

>  <r_i_glide_energy>  (183) 
-29.9685

>  <r_i_glide_einternal>  (183) 
1.48733

>  <r_i_glide_intrahb_reward>  (183) 
-0

>  <i_i_glide_confnum>  (183) 
1

>  <i_i_glide_posenum>  (183) 
33

>  <r_i_glide_eff_state_penalty>  (183) 
0

>  <ligand_id>  (183) 
56

>  <original_smiles>  (183) 
CC(C)n1cnnc1SCC(=O)N1CCOCC1

>  <smiles>  (183) 
[H]c1nnc(SC([H])([H])C(=O)N2C([H])([H])C([H])([H])OC([H])([H])C2([H])[H])n1C([H])(C([H])([H])[H])C([H])([H])[H]

$$$$
57:0:0
     RDKit          3D

 80 84  0  0  1  0  0  0  0  0999 V2000
    0.3214  -10.4626    3.8919 C   0  0  0  0  0  0  0  0  0  0  0  0
    1.5403   -9.5828    3.5592 C   0  0  2  0  0  0  0  0  0  0  0  0
    2.7208   -9.8936    4.5261 C   0  0  0  0  0  0  0  0  0  0  0  0
    4.0231   -9.1469    4.1561 C   0  0  0  0  0  0  0  0  0  0  0  0
    3.7757   -7.6267    4.0352 C   0  0  2  0  0  0  0  0  0  0  0  0
    2.6320   -7.4328    2.9858 C   0  0  1  0  0  0  0  0  0  0  0  0
    1.2553   -8.0290    3.4548 C   0  0  0  0  0  0  0  0  0  0  0  0
    0.1813   -7.7663    2.3788 C   0  0  0  0  0  0  0  0  0  0  0  0
    0.7079   -7.5083    4.8155 C   0  0  0  0  0  0  0  0  0  0  0  0
    2.8813   -5.9973    2.4964 C   0  0  2  0  0  0  0  0  0  0  0  0
    2.2758   -5.0055    3.5504 C   0  0  0  0  0  0  0  0  0  0  0  0
    2.4484   -5.4534    1.1288 C   0  0  0  0  0  0  0  0  0  0  0  0
    3.4930   -4.3067    0.8785 C   0  0  2  0  0  0  0  0  0  0  0  0
    3.8174   -4.0814   -0.6174 C   0  0  1  0  0  0  0  0  0  0  0  0
    2.6279   -3.4694   -1.3080 N   0  0  0  0  0  0  0  0  0  0  0  0
    5.1237   -3.2911   -0.9120 C   0  0  1  0  0  0  0  0  0  0  0  0
    5.4255   -3.3816   -2.4414 C   0  0  0  0  0  0  0  0  0  0  0  0
    5.0789   -1.8187   -0.3965 C   0  0  1  0  0  0  0  0  0  0  0  0
    4.5451   -0.8465   -1.4506 C   0  0  0  0  0  0  0  0  0  0  0  0
    4.6378   -1.5000    1.0634 C   0  0  0  0  0  0  0  0  0  0  0  0
    5.8595   -0.6085    1.1165 C   0  0  0  0  0  0  0  0  0  0  0  0
    6.4233   -1.3014   -0.0578 O   0  0  0  0  0  0  0  0  0  0  0  0
    6.2359   -4.1526   -0.2391 C   0  0  0  0  0  0  0  0  0  0  0  0
    6.1354   -4.2714    1.2823 C   0  0  0  0  0  0  0  0  0  0  0  0
    4.7249   -4.6073    1.8084 C   0  0  2  0  0  0  0  0  0  0  0  0
    4.4431   -6.0649    2.2867 C   0  0  2  0  0  0  0  0  0  0  0  0
    4.9263   -7.0133    1.1202 C   0  0  0  0  0  0  0  0  0  0  0  0
    4.9703   -6.6660    3.6522 C   0  0  0  0  0  0  0  0  0  0  0  0
    5.2265   -5.5868    4.7410 C   0  0  0  0  0  0  0  0  0  0  0  0
    6.3331   -7.4057    3.5599 C   0  0  0  0  0  0  0  0  0  0  0  0
   -0.0769  -10.2560    4.8843 H   0  0  0  0  0  0  0  0  0  0  0  0
    0.5974  -11.5166    3.8624 H   0  0  0  0  0  0  0  0  0  0  0  0
   -0.4768  -10.3271    3.1651 H   0  0  0  0  0  0  0  0  0  0  0  0
    1.8589   -9.9257    2.5727 H   0  0  0  0  0  0  0  0  0  0  0  0
    2.4463   -9.6467    5.5513 H   0  0  0  0  0  0  0  0  0  0  0  0
    2.9205  -10.9681    4.5248 H   0  0  0  0  0  0  0  0  0  0  0  0
    4.7878   -9.3509    4.9096 H   0  0  0  0  0  0  0  0  0  0  0  0
    4.3979   -9.5458    3.2113 H   0  0  0  0  0  0  0  0  0  0  0  0
    3.4357   -7.3029    5.0164 H   0  0  0  0  0  0  0  0  0  0  0  0
    2.8428   -8.0437    2.1134 H   0  0  0  0  0  0  0  0  0  0  0  0
    0.0364   -6.6975    2.2311 H   0  0  0  0  0  0  0  0  0  0  0  0
   -0.7879   -8.1731    2.6680 H   0  0  0  0  0  0  0  0  0  0  0  0
    0.4565   -8.2062    1.4193 H   0  0  0  0  0  0  0  0  0  0  0  0
    0.4238   -6.4588    4.7782 H   0  0  0  0  0  0  0  0  0  0  0  0
    1.4085   -7.6322    5.6385 H   0  0  0  0  0  0  0  0  0  0  0  0
   -0.2007   -8.0385    5.1037 H   0  0  0  0  0  0  0  0  0  0  0  0
    2.6575   -3.9875    3.4887 H   0  0  0  0  0  0  0  0  0  0  0  0
    2.4023   -5.3284    4.5815 H   0  0  0  0  0  0  0  0  0  0  0  0
    1.1995   -4.9097    3.4117 H   0  0  0  0  0  0  0  0  0  0  0  0
    2.4612   -6.2361    0.3650 H   0  0  0  0  0  0  0  0  0  0  0  0
    1.4256   -5.0718    1.1402 H   0  0  0  0  0  0  0  0  0  0  0  0
    3.0126   -3.4121    1.2683 H   0  0  0  0  0  0  0  0  0  0  0  0
    3.9286   -5.0519   -1.0838 H   0  0  0  0  0  0  0  0  0  0  0  0
    2.4305   -2.5466   -0.9446 H   0  0  0  0  0  0  0  0  0  0  0  0
    1.8262   -4.0705   -1.1690 H   0  0  0  0  0  0  0  0  0  0  0  0
    6.4091   -2.9740   -2.6891 H   0  0  0  0  0  0  0  0  0  0  0  0
    4.6985   -2.8488   -3.0504 H   0  0  0  0  0  0  0  0  0  0  0  0
    5.4127   -4.4045   -2.8142 H   0  0  0  0  0  0  0  0  0  0  0  0
    3.5359   -1.0872   -1.7528 H   0  0  0  0  0  0  0  0  0  0  0  0
    5.1903   -0.7471   -2.3228 H   0  0  0  0  0  0  0  0  0  0  0  0
    4.4892    0.1342   -1.0098 H   0  0  0  0  0  0  0  0  0  0  0  0
    3.7139   -0.9163    1.0755 H   0  0  0  0  0  0  0  0  0  0  0  0
    4.7162   -2.2908    1.8493 H   0  0  0  0  0  0  0  0  0  0  0  0
    5.7272    0.4587    0.9368 H   0  0  0  0  0  0  0  0  0  0  0  0
    6.4601   -0.8055    1.9819 H   0  0  0  0  0  0  0  0  0  0  0  0
    6.1967   -5.1633   -0.6369 H   0  0  0  0  0  0  0  0  0  0  0  0
    7.2323   -3.7890   -0.5047 H   0  0  0  0  0  0  0  0  0  0  0  0
    6.8707   -4.9964    1.6501 H   0  0  0  0  0  0  0  0  0  0  0  0
    6.4272   -3.3182    1.7151 H   0  0  0  0  0  0  0  0  0  0  0  0
    4.6350   -3.9989    2.6912 H   0  0  0  0  0  0  0  0  0  0  0  0
    5.9975   -6.9194    0.9814 H   0  0  0  0  0  0  0  0  0  0  0  0
    4.4983   -6.7805    0.1545 H   0  0  0  0  0  0  0  0  0  0  0  0
    4.7534   -8.0726    1.2976 H   0  0  0  0  0  0  0  0  0  0  0  0
    6.0959   -4.9802    4.4860 H   0  0  0  0  0  0  0  0  0  0  0  0
    5.4340   -6.0454    5.7068 H   0  0  0  0  0  0  0  0  0  0  0  0
    4.4188   -4.8840    4.9052 H   0  0  0  0  0  0  0  0  0  0  0  0
    7.1139   -6.7407    3.1929 H   0  0  0  0  0  0  0  0  0  0  0  0
    6.3234   -8.2812    2.9155 H   0  0  0  0  0  0  0  0  0  0  0  0
    6.6520   -7.7501    4.5399 H   0  0  0  0  0  0  0  0  0  0  0  0
    2.8219   -3.4091   -2.2947 H   0  0  0  0  0  0  0  0  0  0  0  0
  1  2  1  0
  1 31  1  0
  1 32  1  0
  1 33  1  0
  2  7  1  0
  2  3  1  0
  2 34  1  6
  3  4  1  0
  3 35  1  0
  3 36  1  0
  4  5  1  0
  4 37  1  0
  4 38  1  0
  5 28  1  0
  5  6  1  0
  5 39  1  1
  6  7  1  0
  6 10  1  0
  6 40  1  6
  7  8  1  0
  7  9  1  0
  8 41  1  0
  8 42  1  0
  8 43  1  0
  9 44  1  0
  9 45  1  0
  9 46  1  0
 10 26  1  0
 10 11  1  1
 10 12  1  0
 11 47  1  0
 11 48  1  0
 11 49  1  0
 12 13  1  0
 12 50  1  0
 12 51  1  0
 13 25  1  0
 13 14  1  0
 13 52  1  1
 14 15  1  0
 14 16  1  0
 14 53  1  6
 15 54  1  0
 15 55  1  0
 15 80  1  0
 16 17  1  6
 16 18  1  0
 16 23  1  0
 17 56  1  0
 17 57  1  0
 17 58  1  0
 18 22  1  0
 18 19  1  6
 18 20  1  0
 19 59  1  0
 19 60  1  0
 19 61  1  0
 20 21  1  0
 20 62  1  0
 20 63  1  0
 21 22  1  0
 21 64  1  0
 21 65  1  0
 23 24  1  0
 23 66  1  0
 23 67  1  0
 24 25  1  0
 24 68  1  0
 24 69  1  0
 25 26  1  0
 25 70  1  1
 26 27  1  6
 26 28  1  0
 27 71  1  0
 27 72  1  0
 27 73  1  0
 28 29  1  0
 28 30  1  0
 29 74  1  0
 29 75  1  0
 29 76  1  0
 30 77  1  0
 30 78  1  0
 30 79  1  0
M  CHG  1  15   1
M  END
>  <i_m_ct_stereo_status>  (184) 
1

>  <s_m_source_file>  (184) 
/var/tmp/pbs.5076255.sched01/tmpi2d1958y/88otlks1nw.sdf

>  <i_m_source_file_index>  (184) 
2

>  <i_lp_mmshare_version>  (184) 
48012

>  <i_f3d_flags>  (184) 
0

>  <s_epik_input>  (184) 
W0NIM11DMShbQ0gzXSlbQ0BIXShbQ0gzXSlbQ0gyXVtDSDJdW0NASF0oW0NAQEhdMVtDQF0yM1tDSDNdKUMoW0NIM10pKFtDSDNdKVtDQF0zKFtDSDNdKVtDQEBIXTRbQ0BIXShbQ0gyXTIpW0NAQEhdKFtOSDJdKVtDQF0oW0NIM10pKFtDSDJdW0NIMl00KVtDQEBdNShbQ0gzXSlbQ0gyXVtDSDJdTzU=

>  <s_epik_cmdline>  (184) 
J2VwaWtfcHl0aG9uJywgJy1waHQnLCAnMi4wJywgJy1waCcsICc3LjAnLCAnLXRuJywgJzgnLCAnLW1hJywgJzIwMCcsICctaW1hZScsICc8aW5maWxlLm1hZT4nLCAnLW9tYWUnLCAnPG91dGZpbGUubWFlPic=

>  <r_lp_tautomer_probability>  (184) 
1

>  <r_epik_Ionization_Penalty>  (184) 
0.000291545

>  <r_epik_Ionization_Penalty_Charging>  (184) 
0.000291545

>  <r_epik_Ionization_Penalty_Neutral>  (184) 
7.82666e-12

>  <r_epik_State_Penalty>  (184) 
-0

>  <r_epik_Charging_Adjusted_Penalty>  (184) 
0.000291545

>  <i_epik_Tot_Q>  (184) 
1

>  <i_epik_Tot_abs_Q>  (184) 
1

>  <s_lp_Force_Field>  (184) 
OPLS3e

>  <r_lp_Energy>  (184) 
97.3976

>  <b_lp_Chiralities_Consistent>  (184) 
1

>  <s_lp_Variant>  (184) 
57:0-1

>  <s_i_glide_gridfile>  (184) 
pfpi4k_grid

>  <i_i_glide_lignum>  (184) 
2

>  <i_i_glide_rotatable_bonds>  (184) 
1

>  <r_i_docking_score>  (184) 
-3.17912

>  <r_i_glide_ligand_efficiency>  (184) 
-0.105971

>  <r_i_glide_ligand_efficiency_sa>  (184) 
-0.329276

>  <r_i_glide_ligand_efficiency_ln>  (184) 
-0.722331

>  <r_i_glide_gscore>  (184) 
-3.17912

>  <r_i_glide_lipo>  (184) 
-0.632281

>  <r_i_glide_hbond>  (184) 
-0.105694

>  <r_i_glide_metal>  (184) 
-0

>  <r_i_glide_rewards>  (184) 
-0.567936

>  <r_i_glide_evdw>  (184) 
-20.7332

>  <r_i_glide_ecoul>  (184) 
-6.3356

>  <r_i_glide_erotb>  (184) 
0.113789

>  <r_i_glide_esite>  (184) 
0

>  <r_i_glide_emodel>  (184) 
-29.929

>  <r_i_glide_energy>  (184) 
-27.0688

>  <r_i_glide_einternal>  (184) 
4.00564

>  <r_i_glide_intrahb_reward>  (184) 
-0

>  <i_i_glide_confnum>  (184) 
4

>  <i_i_glide_posenum>  (184) 
1

>  <r_i_glide_eff_state_penalty>  (184) 
0

>  <ligand_id>  (184) 
57

>  <original_smiles>  (184) 
CC1CCC2C(C1(C)C)C1(C)CC3C(N)C(C)(C4(C)CCO4)CCC3C1(C)C2(C)C

>  <smiles>  (184) 
[H]C([H])([H])C1([H])C([H])([H])C([H])([H])C2([H])C([H])(C1(C([H])([H])[H])C([H])([H])[H])C1(C([H])([H])[H])C([H])([H])C3([H])C([H])(C([H])([H])C([H])([H])C(C([H])([H])[H])(C4(C([H])([H])[H])OC([H])([H])C4([H])[H])C3([H])[N+]([H])([H])[H])C1(C([H])([H])[H])C2(C([H])([H])[H])C([H])([H])[H]

$$$$
57:0:1
     RDKit          3D

 80 84  0  0  1  0  0  0  0  0999 V2000
   -0.9270   -9.2900    4.1393 C   0  0  0  0  0  0  0  0  0  0  0  0
    0.2493   -8.7454    3.3619 C   0  0  2  0  0  0  0  0  0  0  0  0
    1.2714   -9.8848    3.0984 C   0  0  0  0  0  0  0  0  0  0  0  0
    2.4172   -9.4250    2.1764 C   0  0  0  0  0  0  0  0  0  0  0  0
    3.0681   -8.1403    2.7395 C   0  0  2  0  0  0  0  0  0  0  0  0
    1.9522   -7.0646    2.9132 C   0  0  1  0  0  0  0  0  0  0  0  0
    0.8884   -7.4652    3.9885 C   0  0  0  0  0  0  0  0  0  0  0  0
   -0.1778   -6.3600    4.1174 C   0  0  0  0  0  0  0  0  0  0  0  0
    1.4321   -7.7788    5.4132 C   0  0  0  0  0  0  0  0  0  0  0  0
    2.7477   -5.7454    2.8680 C   0  0  2  0  0  0  0  0  0  0  0  0
    3.3792   -5.4984    4.2669 C   0  0  0  0  0  0  0  0  0  0  0  0
    2.1702   -4.3915    2.4391 C   0  0  0  0  0  0  0  0  0  0  0  0
    3.4270   -3.6440    1.8729 C   0  0  2  0  0  0  0  0  0  0  0  0
    3.0584   -2.6269    0.7431 C   0  0  1  0  0  0  0  0  0  0  0  0
    2.3035   -1.5110    1.2831 N   0  0  0  0  0  0  0  0  0  0  0  0
    4.2918   -2.2226   -0.1462 C   0  0  1  0  0  0  0  0  0  0  0  0
    3.7770   -1.4135   -1.3597 C   0  0  0  0  0  0  0  0  0  0  0  0
    5.3834   -1.4202    0.6713 C   0  0  1  0  0  0  0  0  0  0  0  0
    4.9515    0.0136    0.9711 C   0  0  0  0  0  0  0  0  0  0  0  0
    6.0710   -2.0203    1.8908 C   0  0  0  0  0  0  0  0  0  0  0  0
    7.3351   -1.5869    1.1885 C   0  0  0  0  0  0  0  0  0  0  0  0
    6.6317   -1.3383   -0.0546 O   0  0  0  0  0  0  0  0  0  0  0  0
    4.8313   -3.5414   -0.7554 C   0  0  0  0  0  0  0  0  0  0  0  0
    5.3901   -4.5640    0.2446 C   0  0  0  0  0  0  0  0  0  0  0  0
    4.4872   -4.7562    1.5237 C   0  0  2  0  0  0  0  0  0  0  0  0
    3.6762   -6.0399    1.6328 C   0  0  2  0  0  0  0  0  0  0  0  0
    2.9312   -6.1262    0.2627 C   0  0  0  0  0  0  0  0  0  0  0  0
    4.2672   -7.4633    1.9611 C   0  0  0  0  0  0  0  0  0  0  0  0
    5.5710   -7.3802    2.8102 C   0  0  0  0  0  0  0  0  0  0  0  0
    4.6957   -8.3074    0.7288 C   0  0  0  0  0  0  0  0  0  0  0  0
   -0.5814   -9.6458    5.1131 H   0  0  0  0  0  0  0  0  0  0  0  0
   -1.3475  -10.1173    3.5669 H   0  0  0  0  0  0  0  0  0  0  0  0
   -1.7555   -8.5993    4.2852 H   0  0  0  0  0  0  0  0  0  0  0  0
   -0.1912   -8.5025    2.3905 H   0  0  0  0  0  0  0  0  0  0  0  0
    1.6814  -10.2620    4.0390 H   0  0  0  0  0  0  0  0  0  0  0  0
    0.7755  -10.7433    2.6433 H   0  0  0  0  0  0  0  0  0  0  0  0
    3.1527  -10.2226    2.0687 H   0  0  0  0  0  0  0  0  0  0  0  0
    2.0047   -9.2398    1.1835 H   0  0  0  0  0  0  0  0  0  0  0  0
    3.4733   -8.4113    3.7120 H   0  0  0  0  0  0  0  0  0  0  0  0
    1.3343   -7.0472    2.0191 H   0  0  0  0  0  0  0  0  0  0  0  0
    0.2586   -5.4175    4.4341 H   0  0  0  0  0  0  0  0  0  0  0  0
   -0.9448   -6.6063    4.8543 H   0  0  0  0  0  0  0  0  0  0  0  0
   -0.6795   -6.2182    3.1639 H   0  0  0  0  0  0  0  0  0  0  0  0
    1.8332   -6.9053    5.9096 H   0  0  0  0  0  0  0  0  0  0  0  0
    2.1980   -8.5511    5.4236 H   0  0  0  0  0  0  0  0  0  0  0  0
    0.6408   -8.1371    6.0706 H   0  0  0  0  0  0  0  0  0  0  0  0
    4.1976   -4.7850    4.2667 H   0  0  0  0  0  0  0  0  0  0  0  0
    3.7322   -6.4081    4.7466 H   0  0  0  0  0  0  0  0  0  0  0  0
    2.6305   -5.0808    4.9411 H   0  0  0  0  0  0  0  0  0  0  0  0
    1.4183   -4.5412    1.6786 H   0  0  0  0  0  0  0  0  0  0  0  0
    1.6861   -3.8505    3.2578 H   0  0  0  0  0  0  0  0  0  0  0  0
    3.8128   -3.0533    2.7044 H   0  0  0  0  0  0  0  0  0  0  0  0
    2.3381   -3.1069    0.0638 H   0  0  0  0  0  0  0  0  0  0  0  0
    2.8813   -0.9539    1.9244 H   0  0  0  0  0  0  0  0  0  0  0  0
    1.4810   -1.8100    1.7886 H   0  0  0  0  0  0  0  0  0  0  0  0
    4.5496   -1.1657   -2.0932 H   0  0  0  0  0  0  0  0  0  0  0  0
    3.3605   -0.4842   -1.0327 H   0  0  0  0  0  0  0  0  0  0  0  0
    2.9546   -1.9040   -1.8956 H   0  0  0  0  0  0  0  0  0  0  0  0
    4.0701    0.0891    1.5780 H   0  0  0  0  0  0  0  0  0  0  0  0
    4.7519    0.5426    0.0626 H   0  0  0  0  0  0  0  0  0  0  0  0
    5.7336    0.5427    1.5350 H   0  0  0  0  0  0  0  0  0  0  0  0
    5.8091   -1.5216    2.8317 H   0  0  0  0  0  0  0  0  0  0  0  0
    6.1278   -3.0814    1.9986 H   0  0  0  0  0  0  0  0  0  0  0  0
    7.7449   -0.6949    1.6763 H   0  0  0  0  0  0  0  0  0  0  0  0
    8.1196   -2.3529    1.1296 H   0  0  0  0  0  0  0  0  0  0  0  0
    4.0245   -4.0211   -1.3274 H   0  0  0  0  0  0  0  0  0  0  0  0
    5.5973   -3.3234   -1.4981 H   0  0  0  0  0  0  0  0  0  0  0  0
    5.6114   -5.5173   -0.2224 H   0  0  0  0  0  0  0  0  0  0  0  0
    6.3958   -4.2330    0.5001 H   0  0  0  0  0  0  0  0  0  0  0  0
    5.1728   -4.8151    2.3635 H   0  0  0  0  0  0  0  0  0  0  0  0
    3.6355   -6.2893   -0.5564 H   0  0  0  0  0  0  0  0  0  0  0  0
    2.3418   -5.2667   -0.0405 H   0  0  0  0  0  0  0  0  0  0  0  0
    2.2358   -6.9371    0.2904 H   0  0  0  0  0  0  0  0  0  0  0  0
    6.3982   -6.9796    2.2221 H   0  0  0  0  0  0  0  0  0  0  0  0
    5.8823   -8.3649    3.1597 H   0  0  0  0  0  0  0  0  0  0  0  0
    5.5102   -6.7492    3.6870 H   0  0  0  0  0  0  0  0  0  0  0  0
    5.3722   -7.7246    0.1182 H   0  0  0  0  0  0  0  0  0  0  0  0
    3.8664   -8.6036    0.0850 H   0  0  0  0  0  0  0  0  0  0  0  0
    5.1977   -9.2399    1.0247 H   0  0  0  0  0  0  0  0  0  0  0  0
    1.9684   -0.8928    0.5206 H   0  0  0  0  0  0  0  0  0  0  0  0
  1  2  1  0
  1 31  1  0
  1 32  1  0
  1 33  1  0
  2  7  1  0
  2  3  1  0
  2 34  1  6
  3  4  1  0
  3 35  1  0
  3 36  1  0
  4  5  1  0
  4 37  1  0
  4 38  1  0
  5 28  1  0
  5  6  1  0
  5 39  1  1
  6  7  1  0
  6 10  1  0
  6 40  1  6
  7  8  1  0
  7  9  1  0
  8 41  1  0
  8 42  1  0
  8 43  1  0
  9 44  1  0
  9 45  1  0
  9 46  1  0
 10 26  1  0
 10 11  1  1
 10 12  1  0
 11 47  1  0
 11 48  1  0
 11 49  1  0
 12 13  1  0
 12 50  1  0
 12 51  1  0
 13 25  1  0
 13 14  1  0
 13 52  1  1
 14 15  1  0
 14 16  1  0
 14 53  1  6
 15 54  1  0
 15 55  1  0
 15 80  1  0
 16 17  1  6
 16 18  1  0
 16 23  1  0
 17 56  1  0
 17 57  1  0
 17 58  1  0
 18 22  1  0
 18 19  1  1
 18 20  1  0
 19 59  1  0
 19 60  1  0
 19 61  1  0
 20 21  1  0
 20 62  1  0
 20 63  1  0
 21 22  1  0
 21 64  1  0
 21 65  1  0
 23 24  1  0
 23 66  1  0
 23 67  1  0
 24 25  1  0
 24 68  1  0
 24 69  1  0
 25 26  1  0
 25 70  1  1
 26 27  1  6
 26 28  1  0
 27 71  1  0
 27 72  1  0
 27 73  1  0
 28 29  1  0
 28 30  1  0
 29 74  1  0
 29 75  1  0
 29 76  1  0
 30 77  1  0
 30 78  1  0
 30 79  1  0
M  CHG  1  15   1
M  END
>  <i_m_ct_stereo_status>  (185) 
1

>  <s_m_source_file>  (185) 
/var/tmp/pbs.5076255.sched01/tmpi2d1958y/88otlks1nw.sdf

>  <i_m_source_file_index>  (185) 
2

>  <i_lp_mmshare_version>  (185) 
48012

>  <i_f3d_flags>  (185) 
0

>  <s_epik_input>  (185) 
W0NIM11DMShbQ0gzXSlbQ0BIXShbQ0gzXSlbQ0gyXVtDSDJdW0NASF0oW0NAQEhdMVtDQF0yM1tDSDNdKUMoW0NIM10pKFtDSDNdKVtDQF0zKFtDSDNdKVtDQEBIXTRbQ0BIXShbQ0gyXTIpW0NAQEhdKFtOSDJdKVtDQF0oW0NIM10pKFtDSDJdW0NIMl00KVtDQEBdNShbQ0gzXSlbQ0gyXVtDSDJdTzU=

>  <s_epik_cmdline>  (185) 
J2VwaWtfcHl0aG9uJywgJy1waHQnLCAnMi4wJywgJy1waCcsICc3LjAnLCAnLXRuJywgJzgnLCAnLW1hJywgJzIwMCcsICctaW1hZScsICc8aW5maWxlLm1hZT4nLCAnLW9tYWUnLCAnPG91dGZpbGUubWFlPic=

>  <r_lp_tautomer_probability>  (185) 
1

>  <r_epik_Ionization_Penalty>  (185) 
0.000291545

>  <r_epik_Ionization_Penalty_Charging>  (185) 
0.000291545

>  <r_epik_Ionization_Penalty_Neutral>  (185) 
7.82666e-12

>  <r_epik_State_Penalty>  (185) 
-0

>  <r_epik_Charging_Adjusted_Penalty>  (185) 
0.000291545

>  <i_epik_Tot_Q>  (185) 
1

>  <i_epik_Tot_abs_Q>  (185) 
1

>  <s_lp_Force_Field>  (185) 
OPLS3e

>  <r_lp_Energy>  (185) 
97.3976

>  <b_lp_Chiralities_Consistent>  (185) 
1

>  <s_lp_Variant>  (185) 
57:0-1

>  <s_i_glide_gridfile>  (185) 
pfpi4k_grid

>  <i_i_glide_lignum>  (185) 
2

>  <i_i_glide_rotatable_bonds>  (185) 
1

>  <r_i_docking_score>  (185) 
-2.54816

>  <r_i_glide_ligand_efficiency>  (185) 
-0.0849387

>  <r_i_glide_ligand_efficiency_sa>  (185) 
-0.263924

>  <r_i_glide_ligand_efficiency_ln>  (185) 
-0.57897

>  <r_i_glide_gscore>  (185) 
-2.54816

>  <r_i_glide_lipo>  (185) 
-0.593978

>  <r_i_glide_hbond>  (185) 
-0.225544

>  <r_i_glide_metal>  (185) 
-0

>  <r_i_glide_rewards>  (185) 
-0.567936

>  <r_i_glide_evdw>  (185) 
-2.29791

>  <r_i_glide_ecoul>  (185) 
-7.2215

>  <r_i_glide_erotb>  (185) 
0.113789

>  <r_i_glide_esite>  (185) 
-0.0763713

>  <r_i_glide_emodel>  (185) 
-4.90946

>  <r_i_glide_energy>  (185) 
-9.51942

>  <r_i_glide_einternal>  (185) 
14.1519

>  <r_i_glide_intrahb_reward>  (185) 
-0

>  <i_i_glide_confnum>  (185) 
4

>  <i_i_glide_posenum>  (185) 
30

>  <r_i_glide_eff_state_penalty>  (185) 
0

>  <ligand_id>  (185) 
57

>  <original_smiles>  (185) 
CC1CCC2C(C1(C)C)C1(C)CC3C(N)C(C)(C4(C)CCO4)CCC3C1(C)C2(C)C

>  <smiles>  (185) 
[H]C([H])([H])C1([H])C([H])([H])C([H])([H])C2([H])C([H])(C1(C([H])([H])[H])C([H])([H])[H])C1(C([H])([H])[H])C([H])([H])C3([H])C([H])(C([H])([H])C([H])([H])C(C([H])([H])[H])(C4(C([H])([H])[H])OC([H])([H])C4([H])[H])C3([H])[N+]([H])([H])[H])C1(C([H])([H])[H])C2(C([H])([H])[H])C([H])([H])[H]

$$$$
58:0:0
     RDKit          3D

106113  0  0  1  0  0  0  0  0999 V2000
    4.1851   -1.9361    9.8215 C   0  0  0  0  0  0  0  0  0  0  0  0
    4.6249   -2.4100    8.4234 C   0  0  0  0  0  0  0  0  0  0  0  0
    6.1384   -2.1678    8.2613 C   0  0  0  0  0  0  0  0  0  0  0  0
    4.2290   -3.8937    8.2799 C   0  0  0  0  0  0  0  0  0  0  0  0
    4.3829   -4.4014    6.8363 C   0  0  1  0  0  0  0  0  0  0  0  0
    4.0043   -5.9076    6.6445 C   0  0  2  0  0  0  0  0  0  0  0  0
    4.4241   -6.6516    5.2873 C   0  0  0  0  0  0  0  0  0  0  0  0
    3.7587   -6.7358    3.8245 C   0  0  2  0  0  0  0  0  0  0  0  0
    4.7486   -7.7503    3.1690 C   0  0  0  0  0  0  0  0  0  0  0  0
    3.8471   -5.3813    2.9490 C   0  0  1  0  0  0  0  0  0  0  0  0
    5.1516   -4.5223    3.0791 C   0  0  1  0  0  0  0  0  0  0  0  0
    6.3169   -5.0644    2.4900 O   0  0  0  0  0  0  0  0  0  0  0  0
    4.9521   -3.0417    2.6899 C   0  0  0  0  0  0  0  0  0  0  0  0
    4.1268   -2.7203    1.4124 C   0  0  1  0  0  0  0  0  0  0  0  0
    3.3240   -1.4318    1.7637 C   0  0  0  0  0  0  0  0  0  0  0  0
    5.0705   -2.2870    0.2337 C   0  0  2  0  0  0  0  0  0  0  0  0
    4.3668   -2.0016   -1.0990 C   0  0  2  0  0  0  0  0  0  0  0  0
    3.1179   -2.8313   -1.3079 C   0  0  0  0  0  0  0  0  0  0  0  0
    2.5552   -3.6145   -0.3875 C   0  0  0  0  0  0  0  0  0  0  0  0
    3.0500   -3.8261    1.0493 C   0  0  1  0  0  0  0  0  0  0  0  0
    3.2707   -5.3563    1.4744 C   0  0  1  0  0  0  0  0  0  0  0  0
    4.1734   -6.0644    0.4131 C   0  0  0  0  0  0  0  0  0  0  0  0
    1.8642   -6.0740    1.5435 C   0  0  1  0  0  0  0  0  0  0  0  0
    1.2354   -6.2172    0.2912 O   0  0  0  0  0  0  0  0  0  0  0  0
    1.7837   -7.4526    2.2530 C   0  0  1  0  0  0  0  0  0  0  0  0
    2.3865   -8.4979    1.5167 O   0  0  0  0  0  0  0  0  0  0  0  0
    2.2827   -7.4150    3.7411 C   0  0  2  0  0  0  0  0  0  0  0  0
    1.1326   -7.0751    4.8063 C   0  0  2  0  0  0  0  0  0  0  0  0
   -0.3187   -7.0706    4.1939 C   0  0  0  0  0  0  0  0  0  0  0  0
    1.2479   -5.5660    5.1949 C   0  0  0  0  0  0  0  0  0  0  0  0
    0.7587   -5.2232    6.5901 C   0  0  0  0  0  0  0  0  0  0  0  0
    1.3350   -6.2449    7.5410 C   0  0  1  0  0  0  0  0  0  0  0  0
    0.5696   -7.4011    7.2075 O   0  0  0  0  0  0  0  0  0  0  0  0
    1.0761   -8.1061    6.0813 C   0  0  1  0  0  0  0  0  0  0  0  0
    0.0517   -9.2496    5.8884 C   0  0  0  0  0  0  0  0  0  0  0  0
    2.3336   -8.8300    6.7155 C   0  0  1  0  0  0  0  0  0  0  0  0
    3.1525   -9.5887    5.8670 O   0  0  0  0  0  0  0  0  0  0  0  0
    3.1141   -8.0289    7.7553 C   0  0  0  0  0  0  0  0  0  0  0  0
    2.8966   -6.5311    7.5814 C   0  0  1  0  0  0  0  0  0  0  0  0
    5.4438   -2.3176   -2.1207 C   0  0  0  0  0  0  0  0  0  0  0  0
    6.1605   -3.3919   -1.5469 O   0  0  0  0  0  0  0  0  0  0  0  0
    6.1918   -3.2672   -0.1642 C   0  0  1  0  0  0  0  0  0  0  0  0
    7.4262   -2.8156    0.3059 O   0  0  0  0  0  0  0  0  0  0  0  0
    3.6811   -3.4051    5.9014 C   0  0  0  0  0  0  0  0  0  0  0  0
    4.1226   -1.9492    6.1199 C   0  0  0  0  0  0  0  0  0  0  0  0
    3.9187   -1.5983    7.4866 O   0  0  0  0  0  0  0  0  0  0  0  0
    4.7492   -2.4616   10.5960 H   0  0  0  0  0  0  0  0  0  0  0  0
    3.1260   -2.1286   10.0049 H   0  0  0  0  0  0  0  0  0  0  0  0
    4.3539   -0.8655    9.9422 H   0  0  0  0  0  0  0  0  0  0  0  0
    6.7007   -2.6830    9.0412 H   0  0  0  0  0  0  0  0  0  0  0  0
    6.3600   -1.1005    8.3260 H   0  0  0  0  0  0  0  0  0  0  0  0
    6.5266   -2.5185    7.3048 H   0  0  0  0  0  0  0  0  0  0  0  0
    4.8092   -4.5104    8.9667 H   0  0  0  0  0  0  0  0  0  0  0  0
    3.1819   -3.9857    8.5567 H   0  0  0  0  0  0  0  0  0  0  0  0
    5.4277   -4.3431    6.5840 H   0  0  0  0  0  0  0  0  0  0  0  0
    4.8506   -6.3054    7.2113 H   0  0  0  0  0  0  0  0  0  0  0  0
    5.4499   -6.3302    5.1260 H   0  0  0  0  0  0  0  0  0  0  0  0
    4.6134   -7.6891    5.5691 H   0  0  0  0  0  0  0  0  0  0  0  0
    4.6128   -7.9001    2.1084 H   0  0  0  0  0  0  0  0  0  0  0  0
    4.6677   -8.7383    3.6262 H   0  0  0  0  0  0  0  0  0  0  0  0
    5.7872   -7.4421    3.2793 H   0  0  0  0  0  0  0  0  0  0  0  0
    3.0969   -4.7421    3.3877 H   0  0  0  0  0  0  0  0  0  0  0  0
    5.4084   -4.4398    4.1361 H   0  0  0  0  0  0  0  0  0  0  0  0
    6.1822   -5.2116    1.5573 H   0  0  0  0  0  0  0  0  0  0  0  0
    4.4486   -2.5849    3.5316 H   0  0  0  0  0  0  0  0  0  0  0  0
    5.9174   -2.5273    2.6488 H   0  0  0  0  0  0  0  0  0  0  0  0
    2.7065   -1.0829    0.9350 H   0  0  0  0  0  0  0  0  0  0  0  0
    3.9901   -0.6185    2.0504 H   0  0  0  0  0  0  0  0  0  0  0  0
    2.6528   -1.5975    2.6029 H   0  0  0  0  0  0  0  0  0  0  0  0
    5.5670   -1.3487    0.5129 H   0  0  0  0  0  0  0  0  0  0  0  0
    4.0573   -0.9537   -1.1649 H   0  0  0  0  0  0  0  0  0  0  0  0
    2.6506   -2.7349   -2.2815 H   0  0  0  0  0  0  0  0  0  0  0  0
    1.6401   -4.1021   -0.6712 H   0  0  0  0  0  0  0  0  0  0  0  0
    2.1810   -3.5309    1.6339 H   0  0  0  0  0  0  0  0  0  0  0  0
    4.2414   -5.5157   -0.5260 H   0  0  0  0  0  0  0  0  0  0  0  0
    3.8127   -7.0496    0.1446 H   0  0  0  0  0  0  0  0  0  0  0  0
    5.1866   -6.2328    0.7467 H   0  0  0  0  0  0  0  0  0  0  0  0
    1.1978   -5.4261    2.1104 H   0  0  0  0  0  0  0  0  0  0  0  0
    1.8892   -6.6084   -0.2872 H   0  0  0  0  0  0  0  0  0  0  0  0
    0.7497   -7.7903    2.1651 H   0  0  0  0  0  0  0  0  0  0  0  0
    2.0843   -9.3280    1.8780 H   0  0  0  0  0  0  0  0  0  0  0  0
    2.4255   -8.4726    3.9201 H   0  0  0  0  0  0  0  0  0  0  0  0
   -1.0664   -6.8065    4.9424 H   0  0  0  0  0  0  0  0  0  0  0  0
   -0.6203   -8.0293    3.7718 H   0  0  0  0  0  0  0  0  0  0  0  0
   -0.4387   -6.3418    3.3958 H   0  0  0  0  0  0  0  0  0  0  0  0
    2.2640   -5.2417    5.1675 H   0  0  0  0  0  0  0  0  0  0  0  0
    0.7557   -4.9108    4.4764 H   0  0  0  0  0  0  0  0  0  0  0  0
    0.9951   -4.2167    6.9097 H   0  0  0  0  0  0  0  0  0  0  0  0
   -0.3301   -5.2367    6.6410 H   0  0  0  0  0  0  0  0  0  0  0  0
    1.0285   -5.9491    8.5404 H   0  0  0  0  0  0  0  0  0  0  0  0
    0.2820   -9.8265    4.9926 H   0  0  0  0  0  0  0  0  0  0  0  0
   -0.9736   -8.8879    5.8221 H   0  0  0  0  0  0  0  0  0  0  0  0
    0.0304   -9.9445    6.7301 H   0  0  0  0  0  0  0  0  0  0  0  0
    1.9589   -9.6202    7.3660 H   0  0  0  0  0  0  0  0  0  0  0  0
    2.7224  -10.4283    5.7363 H   0  0  0  0  0  0  0  0  0  0  0  0
    2.7365   -8.2882    8.7485 H   0  0  0  0  0  0  0  0  0  0  0  0
    4.1714   -8.3007    7.7788 H   0  0  0  0  0  0  0  0  0  0  0  0
    3.1746   -6.1815    8.5713 H   0  0  0  0  0  0  0  0  0  0  0  0
    5.0551   -2.5887   -3.1036 H   0  0  0  0  0  0  0  0  0  0  0  0
    6.1024   -1.4613   -2.2228 H   0  0  0  0  0  0  0  0  0  0  0  0
    6.0234   -4.2582    0.2173 H   0  0  0  0  0  0  0  0  0  0  0  0
    8.0656   -3.5172    0.1850 H   0  0  0  0  0  0  0  0  0  0  0  0
    3.9175   -3.7067    4.8966 H   0  0  0  0  0  0  0  0  0  0  0  0
    2.5869   -3.4221    6.0622 H   0  0  0  0  0  0  0  0  0  0  0  0
    5.1499   -1.7853    5.8214 H   0  0  0  0  0  0  0  0  0  0  0  0
    3.4969   -1.3278    5.4876 H   0  0  0  0  0  0  0  0  0  0  0  0
  1  2  1  0
  1 47  1  0
  1 48  1  0
  1 49  1  0
  2 46  1  0
  2  3  1  0
  2  4  1  0
  3 50  1  0
  3 51  1  0
  3 52  1  0
  4  5  1  0
  4 53  1  0
  4 54  1  0
  5  6  1  0
  5 44  1  0
  5 55  1  6
  6 39  1  0
  6  7  1  0
  6 56  1  1
  7  8  1  0
  7 57  1  0
  7 58  1  0
  8 27  1  0
  8  9  1  6
  8 10  1  0
  9 59  1  0
  9 60  1  0
  9 61  1  0
 10 21  1  0
 10 11  1  0
 10 62  1  1
 11 12  1  0
 11 13  1  0
 11 63  1  1
 12 64  1  0
 13 14  1  0
 13 65  1  0
 13 66  1  0
 14 20  1  0
 14 15  1  1
 14 16  1  0
 15 67  1  0
 15 68  1  0
 15 69  1  0
 16 42  1  0
 16 17  1  0
 16 70  1  1
 17 18  1  0
 17 40  1  0
 17 71  1  1
 18 19  2  0
 18 72  1  0
 19 20  1  0
 19 73  1  0
 20 21  1  0
 20 74  1  1
 21 22  1  6
 21 23  1  0
 22 75  1  0
 22 76  1  0
 22 77  1  0
 23 24  1  0
 23 25  1  0
 23 78  1  1
 24 79  1  0
 25 26  1  0
 25 27  1  0
 25 80  1  1
 26 81  1  0
 27 28  1  0
 27 82  1  1
 28 34  1  0
 28 29  1  6
 28 30  1  0
 29 83  1  0
 29 84  1  0
 29 85  1  0
 30 31  1  0
 30 86  1  0
 30 87  1  0
 31 32  1  0
 31 88  1  0
 31 89  1  0
 32 39  1  0
 32 33  1  0
 32 90  1  1
 33 34  1  0
 34 35  1  6
 34 36  1  0
 35 91  1  0
 35 92  1  0
 35 93  1  0
 36 37  1  0
 36 38  1  0
 36 94  1  1
 37 95  1  0
 38 39  1  0
 38 96  1  0
 38 97  1  0
 39 98  1  1
 40 41  1  0
 40 99  1  0
 40100  1  0
 41 42  1  0
 42 43  1  0
 42101  1  1
 43102  1  0
 44 45  1  0
 44103  1  0
 44104  1  0
 45 46  1  0
 45105  1  0
 45106  1  0
M  END
>  <i_m_ct_stereo_status>  (186) 
1

>  <s_m_source_file>  (186) 
/var/tmp/pbs.5076255.sched01/tmpi2d1958y/88otlks1nw.sdf

>  <i_m_source_file_index>  (186) 
3

>  <i_lp_mmshare_version>  (186) 
48012

>  <i_f3d_flags>  (186) 
0

>  <s_epik_input>  (186) 
W0NIM11DMShbQ0gzXSlbQ0gyXVtDQEhdKFtDSDJdW0NIMl1PMSlbQ0BIXShbQ0gyXTIpW0NASF0oW0NIMl1bQ0BASF0zW09IXSlbQ0BASF0oW0NIMl1bQ0gyXTQpT1tDQEBdMyhbQ0gzXSlbQ0BdNChbQ0gzXSlbQ0BIXTVbQ0BIXShbT0hdKVtDQEhdKFtPSF0pW0NAXShbQ0gzXSkoW0NASF02W0NAQF0yNVtDSDNdKVtDQEhdN1tDQEBdKFtDSDNdKShbQ0gyXVtDQEBIXTZbT0hdKVtDQEBIXThbQ0BIXShbQ0hdPVtDSF03KVtDSDJdT1tDQEhdOFtPSF0=

>  <s_epik_cmdline>  (186) 
J2VwaWtfcHl0aG9uJywgJy1waHQnLCAnMi4wJywgJy1waCcsICc3LjAnLCAnLXRuJywgJzgnLCAnLW1hJywgJzIwMCcsICctaW1hZScsICc8aW5maWxlLm1hZT4nLCAnLW9tYWUnLCAnPG91dGZpbGUubWFlPic=

>  <r_lp_tautomer_probability>  (186) 
1

>  <r_epik_Ionization_Penalty>  (186) 
1.98009e-06

>  <r_epik_Ionization_Penalty_Charging>  (186) 
0

>  <r_epik_Ionization_Penalty_Neutral>  (186) 
1.98009e-06

>  <r_epik_State_Penalty>  (186) 
-0

>  <r_epik_Charging_Adjusted_Penalty>  (186) 
0

>  <i_epik_Tot_Q>  (186) 
0

>  <i_epik_Tot_abs_Q>  (186) 
0

>  <s_epik_Chemistry_Notes>  (186) 
This compound contains an acetal/aminal-like group ( X-CH(R)-Y where X, Y are N, S, or O) that may be acid/base labile, releasing an aldehyde.

>  <s_lp_Force_Field>  (186) 
OPLS3e

>  <r_lp_Energy>  (186) 
190.362

>  <b_lp_Chiralities_Consistent>  (186) 
1

>  <s_lp_Variant>  (186) 
58:0-1

>  <s_i_glide_gridfile>  (186) 
pfpi4k_grid

>  <i_i_glide_lignum>  (186) 
3

>  <i_i_glide_rotatable_bonds>  (186) 
6

>  <r_i_docking_score>  (186) 
-2.70441

>  <r_i_glide_ligand_efficiency>  (186) 
-0.0587914

>  <r_i_glide_ligand_efficiency_sa>  (186) 
-0.210653

>  <r_i_glide_ligand_efficiency_ln>  (186) 
-0.560076

>  <r_i_glide_gscore>  (186) 
-2.70441

>  <r_i_glide_lipo>  (186) 
-0.199677

>  <r_i_glide_hbond>  (186) 
0

>  <r_i_glide_metal>  (186) 
-0

>  <r_i_glide_rewards>  (186) 
-0.10675

>  <r_i_glide_evdw>  (186) 
-35.4344

>  <r_i_glide_ecoul>  (186) 
-4.51509

>  <r_i_glide_erotb>  (186) 
0.0510039

>  <r_i_glide_esite>  (186) 
0

>  <r_i_glide_emodel>  (186) 
-42.6777

>  <r_i_glide_energy>  (186) 
-39.9495

>  <r_i_glide_einternal>  (186) 
1.65004

>  <r_i_glide_intrahb_reward>  (186) 
-0

>  <i_i_glide_confnum>  (186) 
1

>  <i_i_glide_posenum>  (186) 
1

>  <r_i_glide_eff_state_penalty>  (186) 
0

>  <ligand_id>  (186) 
58

>  <original_smiles>  (186) 
CC1(C)CC(C2CC3(C)C4C(O)CC5(C)C6C(C=CC5C4(C)C(O)C(O)C3C3(C)CCC4OC3(C)C(O)CC42)COC6O)CCO1

>  <smiles>  (186) 
[H]OC1([H])OC([H])([H])C2([H])C([H])=C([H])C3([H])C(C([H])([H])[H])(C([H])([H])C([H])(O[H])C4([H])C3(C([H])([H])[H])C([H])(O[H])C([H])(O[H])C3([H])C4(C([H])([H])[H])C([H])([H])C([H])(C4([H])C([H])([H])C([H])([H])OC(C([H])([H])[H])(C([H])([H])[H])C4([H])[H])C4([H])C([H])([H])C([H])(O[H])C5(C([H])([H])[H])OC4([H])C([H])([H])C([H])([H])C35C([H])([H])[H])C12[H]

$$$$
58:0:1
     RDKit          3D

106113  0  0  1  0  0  0  0  0999 V2000
    7.3834   -2.5152    7.4992 C   0  0  0  0  0  0  0  0  0  0  0  0
    5.8546   -2.5693    7.4004 C   0  0  0  0  0  0  0  0  0  0  0  0
    5.4013   -1.6193    6.2813 C   0  0  0  0  0  0  0  0  0  0  0  0
    5.4326   -4.0267    7.1564 C   0  0  0  0  0  0  0  0  0  0  0  0
    3.8895   -4.2499    7.1722 C   0  0  1  0  0  0  0  0  0  0  0  0
    3.5349   -5.7721    7.0248 C   0  0  2  0  0  0  0  0  0  0  0  0
    4.0561   -6.5450    5.7322 C   0  0  0  0  0  0  0  0  0  0  0  0
    3.4950   -6.7018    4.2366 C   0  0  2  0  0  0  0  0  0  0  0  0
    4.5957   -7.6760    3.6964 C   0  0  0  0  0  0  0  0  0  0  0  0
    3.5428   -5.3668    3.3312 C   0  0  1  0  0  0  0  0  0  0  0  0
    4.7617   -4.4432    3.5300 C   0  0  1  0  0  0  0  0  0  0  0  0
    6.0114   -4.9485    3.0983 O   0  0  0  0  0  0  0  0  0  0  0  0
    4.5151   -3.0051    3.0553 C   0  0  0  0  0  0  0  0  0  0  0  0
    3.8087   -2.7873    1.6919 C   0  0  1  0  0  0  0  0  0  0  0  0
    2.9170   -1.5259    1.9206 C   0  0  0  0  0  0  0  0  0  0  0  0
    4.8079   -2.3373    0.5569 C   0  0  2  0  0  0  0  0  0  0  0  0
    4.1968   -2.1463   -0.8367 C   0  0  2  0  0  0  0  0  0  0  0  0
    3.0206   -3.0574   -1.1038 C   0  0  0  0  0  0  0  0  0  0  0  0
    2.4426   -3.8424   -0.1890 C   0  0  0  0  0  0  0  0  0  0  0  0
    2.8272   -3.9578    1.2912 C   0  0  1  0  0  0  0  0  0  0  0  0
    3.1034   -5.4433    1.8111 C   0  0  1  0  0  0  0  0  0  0  0  0
    4.1199   -6.1473    0.8477 C   0  0  0  0  0  0  0  0  0  0  0  0
    1.7406   -6.2331    1.8147 C   0  0  1  0  0  0  0  0  0  0  0  0
    1.2165   -6.4770    0.5262 O   0  0  0  0  0  0  0  0  0  0  0  0
    1.6968   -7.5900    2.5668 C   0  0  1  0  0  0  0  0  0  0  0  0
    2.4025   -8.6271    1.9040 O   0  0  0  0  0  0  0  0  0  0  0  0
    2.0866   -7.4739    4.0847 C   0  0  2  0  0  0  0  0  0  0  0  0
    0.8661   -7.1360    5.0678 C   0  0  2  0  0  0  0  0  0  0  0  0
   -0.5317   -7.2501    4.3577 C   0  0  0  0  0  0  0  0  0  0  0  0
    0.8685   -5.5970    5.3825 C   0  0  0  0  0  0  0  0  0  0  0  0
    0.2891   -5.2210    6.7202 C   0  0  0  0  0  0  0  0  0  0  0  0
    0.8297   -6.1867    7.7533 C   0  0  1  0  0  0  0  0  0  0  0  0
    0.1677   -7.4051    7.4302 O   0  0  0  0  0  0  0  0  0  0  0  0
    0.7813   -8.1297    6.3732 C   0  0  1  0  0  0  0  0  0  0  0  0
   -0.1687   -9.3417    6.1644 C   0  0  0  0  0  0  0  0  0  0  0  0
    2.0178   -8.7519    7.1311 C   0  0  1  0  0  0  0  0  0  0  0  0
    2.9309   -9.5188    6.3780 O   0  0  0  0  0  0  0  0  0  0  0  0
    2.6683   -7.8590    8.1843 C   0  0  0  0  0  0  0  0  0  0  0  0
    2.3864   -6.3848    7.9296 C   0  0  1  0  0  0  0  0  0  0  0  0
    5.3695   -2.4281   -1.7668 C   0  0  0  0  0  0  0  0  0  0  0  0
    6.0927   -3.4394   -1.0944 O   0  0  0  0  0  0  0  0  0  0  0  0
    6.0072   -3.2672    0.2838 C   0  0  1  0  0  0  0  0  0  0  0  0
    7.1818   -2.7367    0.8261 O   0  0  0  0  0  0  0  0  0  0  0  0
    3.3833   -3.6201    8.4931 C   0  0  0  0  0  0  0  0  0  0  0  0
    3.8952   -2.1920    8.7531 C   0  0  0  0  0  0  0  0  0  0  0  0
    5.3206   -2.1495    8.6495 O   0  0  0  0  0  0  0  0  0  0  0  0
    7.8111   -2.7799    6.5278 H   0  0  0  0  0  0  0  0  0  0  0  0
    7.7942   -3.2183    8.2239 H   0  0  0  0  0  0  0  0  0  0  0  0
    7.7498   -1.5204    7.7520 H   0  0  0  0  0  0  0  0  0  0  0  0
    5.8667   -1.8808    5.3401 H   0  0  0  0  0  0  0  0  0  0  0  0
    5.6797   -0.5923    6.5052 H   0  0  0  0  0  0  0  0  0  0  0  0
    4.3290   -1.6301    6.1085 H   0  0  0  0  0  0  0  0  0  0  0  0
    5.9210   -4.3607    6.2402 H   0  0  0  0  0  0  0  0  0  0  0  0
    5.8729   -4.6316    7.9520 H   0  0  0  0  0  0  0  0  0  0  0  0
    3.4278   -3.7178    6.3465 H   0  0  0  0  0  0  0  0  0  0  0  0
    4.3315   -6.1185    7.6823 H   0  0  0  0  0  0  0  0  0  0  0  0
    5.0768   -6.1871    5.6173 H   0  0  0  0  0  0  0  0  0  0  0  0
    4.2656   -7.5532    6.0770 H   0  0  0  0  0  0  0  0  0  0  0  0
    4.5556   -7.8855    2.6389 H   0  0  0  0  0  0  0  0  0  0  0  0
    4.5505   -8.6455    4.1984 H   0  0  0  0  0  0  0  0  0  0  0  0
    5.6071   -7.3079    3.8683 H   0  0  0  0  0  0  0  0  0  0  0  0
    2.7568   -4.7309    3.7199 H   0  0  0  0  0  0  0  0  0  0  0  0
    4.8772   -4.3208    4.5918 H   0  0  0  0  0  0  0  0  0  0  0  0
    5.9837   -5.1068    2.1683 H   0  0  0  0  0  0  0  0  0  0  0  0
    3.8952   -2.5524    3.8294 H   0  0  0  0  0  0  0  0  0  0  0  0
    5.4379   -2.4334    3.0803 H   0  0  0  0  0  0  0  0  0  0  0  0
    2.3460   -1.2456    1.0328 H   0  0  0  0  0  0  0  0  0  0  0  0
    3.5186   -0.6608    2.2138 H   0  0  0  0  0  0  0  0  0  0  0  0
    2.1918   -1.6885    2.7221 H   0  0  0  0  0  0  0  0  0  0  0  0
    5.2288   -1.3601    0.8308 H   0  0  0  0  0  0  0  0  0  0  0  0
    3.8337   -1.1221   -0.9719 H   0  0  0  0  0  0  0  0  0  0  0  0
    2.6259   -3.0314   -2.1084 H   0  0  0  0  0  0  0  0  0  0  0  0
    1.5909   -4.4059   -0.5293 H   0  0  0  0  0  0  0  0  0  0  0  0
    1.8988   -3.6931    1.7948 H   0  0  0  0  0  0  0  0  0  0  0  0
    4.2326   -5.6460   -0.1136 H   0  0  0  0  0  0  0  0  0  0  0  0
    3.8400   -7.1643    0.5901 H   0  0  0  0  0  0  0  0  0  0  0  0
    5.1198   -6.2362    1.2540 H   0  0  0  0  0  0  0  0  0  0  0  0
    1.0005   -5.6067    2.3080 H   0  0  0  0  0  0  0  0  0  0  0  0
    1.8407   -7.0474    0.0989 H   0  0  0  0  0  0  0  0  0  0  0  0
    0.7000   -8.0057    2.4304 H   0  0  0  0  0  0  0  0  0  0  0  0
    2.1946   -9.4509    2.3219 H   0  0  0  0  0  0  0  0  0  0  0  0
    2.2810   -8.5121    4.3269 H   0  0  0  0  0  0  0  0  0  0  0  0
   -1.3468   -7.0054    5.0373 H   0  0  0  0  0  0  0  0  0  0  0  0
   -0.7408   -8.2458    3.9680 H   0  0  0  0  0  0  0  0  0  0  0  0
   -0.6450   -6.5762    3.5123 H   0  0  0  0  0  0  0  0  0  0  0  0
    1.8472   -5.1668    5.4265 H   0  0  0  0  0  0  0  0  0  0  0  0
    0.3813   -5.0088    4.6061 H   0  0  0  0  0  0  0  0  0  0  0  0
    0.5114   -4.1860    6.9644 H   0  0  0  0  0  0  0  0  0  0  0  0
   -0.8003   -5.2888    6.6853 H   0  0  0  0  0  0  0  0  0  0  0  0
    0.4142   -5.8785    8.7136 H   0  0  0  0  0  0  0  0  0  0  0  0
    0.1609   -9.9450    5.3162 H   0  0  0  0  0  0  0  0  0  0  0  0
   -1.2043   -9.0590    6.0094 H   0  0  0  0  0  0  0  0  0  0  0  0
   -0.2103  -10.0020    7.0308 H   0  0  0  0  0  0  0  0  0  0  0  0
    1.6417   -9.5392    7.7820 H   0  0  0  0  0  0  0  0  0  0  0  0
    2.6037  -10.4067    6.3336 H   0  0  0  0  0  0  0  0  0  0  0  0
    2.2334   -8.1047    9.1545 H   0  0  0  0  0  0  0  0  0  0  0  0
    3.7252   -8.0866    8.2987 H   0  0  0  0  0  0  0  0  0  0  0  0
    2.5562   -5.9614    8.9136 H   0  0  0  0  0  0  0  0  0  0  0  0
    5.0647   -2.7664   -2.7593 H   0  0  0  0  0  0  0  0  0  0  0  0
    5.9897   -1.5389   -1.8746 H   0  0  0  0  0  0  0  0  0  0  0  0
    5.8853   -4.2576    0.6940 H   0  0  0  0  0  0  0  0  0  0  0  0
    7.1808   -1.7918    0.6954 H   0  0  0  0  0  0  0  0  0  0  0  0
    2.2962   -3.6118    8.5375 H   0  0  0  0  0  0  0  0  0  0  0  0
    3.7250   -4.2280    9.3292 H   0  0  0  0  0  0  0  0  0  0  0  0
    3.4351   -1.4652    8.0781 H   0  0  0  0  0  0  0  0  0  0  0  0
    3.6224   -1.9001    9.7722 H   0  0  0  0  0  0  0  0  0  0  0  0
  1  2  1  0
  1 47  1  0
  1 48  1  0
  1 49  1  0
  2 46  1  0
  2  3  1  0
  2  4  1  0
  3 50  1  0
  3 51  1  0
  3 52  1  0
  4  5  1  0
  4 53  1  0
  4 54  1  0
  5  6  1  0
  5 44  1  0
  5 55  1  6
  6 39  1  0
  6  7  1  0
  6 56  1  1
  7  8  1  0
  7 57  1  0
  7 58  1  0
  8 27  1  0
  8  9  1  6
  8 10  1  0
  9 59  1  0
  9 60  1  0
  9 61  1  0
 10 21  1  0
 10 11  1  0
 10 62  1  1
 11 12  1  0
 11 13  1  0
 11 63  1  1
 12 64  1  0
 13 14  1  0
 13 65  1  0
 13 66  1  0
 14 20  1  0
 14 15  1  1
 14 16  1  0
 15 67  1  0
 15 68  1  0
 15 69  1  0
 16 42  1  0
 16 17  1  0
 16 70  1  1
 17 18  1  0
 17 40  1  0
 17 71  1  1
 18 19  2  0
 18 72  1  0
 19 20  1  0
 19 73  1  0
 20 21  1  0
 20 74  1  1
 21 22  1  6
 21 23  1  0
 22 75  1  0
 22 76  1  0
 22 77  1  0
 23 24  1  0
 23 25  1  0
 23 78  1  1
 24 79  1  0
 25 26  1  0
 25 27  1  0
 25 80  1  1
 26 81  1  0
 27 28  1  0
 27 82  1  1
 28 34  1  0
 28 29  1  6
 28 30  1  0
 29 83  1  0
 29 84  1  0
 29 85  1  0
 30 31  1  0
 30 86  1  0
 30 87  1  0
 31 32  1  0
 31 88  1  0
 31 89  1  0
 32 39  1  0
 32 33  1  0
 32 90  1  1
 33 34  1  0
 34 35  1  6
 34 36  1  0
 35 91  1  0
 35 92  1  0
 35 93  1  0
 36 37  1  0
 36 38  1  0
 36 94  1  1
 37 95  1  0
 38 39  1  0
 38 96  1  0
 38 97  1  0
 39 98  1  1
 40 41  1  0
 40 99  1  0
 40100  1  0
 41 42  1  0
 42 43  1  0
 42101  1  1
 43102  1  0
 44 45  1  0
 44103  1  0
 44104  1  0
 45 46  1  0
 45105  1  0
 45106  1  0
M  END
>  <i_m_ct_stereo_status>  (187) 
1

>  <s_m_source_file>  (187) 
/var/tmp/pbs.5076255.sched01/tmpi2d1958y/88otlks1nw.sdf

>  <i_m_source_file_index>  (187) 
3

>  <i_lp_mmshare_version>  (187) 
48012

>  <i_f3d_flags>  (187) 
0

>  <s_epik_input>  (187) 
W0NIM11DMShbQ0gzXSlbQ0gyXVtDQEhdKFtDSDJdW0NIMl1PMSlbQ0BIXShbQ0gyXTIpW0NASF0oW0NIMl1bQ0BASF0zW09IXSlbQ0BASF0oW0NIMl1bQ0gyXTQpT1tDQEBdMyhbQ0gzXSlbQ0BdNChbQ0gzXSlbQ0BIXTVbQ0BIXShbT0hdKVtDQEhdKFtPSF0pW0NAXShbQ0gzXSkoW0NASF02W0NAQF0yNVtDSDNdKVtDQEhdN1tDQEBdKFtDSDNdKShbQ0gyXVtDQEBIXTZbT0hdKVtDQEBIXThbQ0BIXShbQ0hdPVtDSF03KVtDSDJdT1tDQEhdOFtPSF0=

>  <s_epik_cmdline>  (187) 
J2VwaWtfcHl0aG9uJywgJy1waHQnLCAnMi4wJywgJy1waCcsICc3LjAnLCAnLXRuJywgJzgnLCAnLW1hJywgJzIwMCcsICctaW1hZScsICc8aW5maWxlLm1hZT4nLCAnLW9tYWUnLCAnPG91dGZpbGUubWFlPic=

>  <r_lp_tautomer_probability>  (187) 
1

>  <r_epik_Ionization_Penalty>  (187) 
1.98009e-06

>  <r_epik_Ionization_Penalty_Charging>  (187) 
0

>  <r_epik_Ionization_Penalty_Neutral>  (187) 
1.98009e-06

>  <r_epik_State_Penalty>  (187) 
-0

>  <r_epik_Charging_Adjusted_Penalty>  (187) 
0

>  <i_epik_Tot_Q>  (187) 
0

>  <i_epik_Tot_abs_Q>  (187) 
0

>  <s_epik_Chemistry_Notes>  (187) 
This compound contains an acetal/aminal-like group ( X-CH(R)-Y where X, Y are N, S, or O) that may be acid/base labile, releasing an aldehyde.

>  <s_lp_Force_Field>  (187) 
OPLS3e

>  <r_lp_Energy>  (187) 
190.362

>  <b_lp_Chiralities_Consistent>  (187) 
1

>  <s_lp_Variant>  (187) 
58:0-1

>  <s_i_glide_gridfile>  (187) 
pfpi4k_grid

>  <i_i_glide_lignum>  (187) 
3

>  <i_i_glide_rotatable_bonds>  (187) 
6

>  <r_i_docking_score>  (187) 
-2.54159

>  <r_i_glide_ligand_efficiency>  (187) 
-0.0552519

>  <r_i_glide_ligand_efficiency_sa>  (187) 
-0.19797

>  <r_i_glide_ligand_efficiency_ln>  (187) 
-0.526356

>  <r_i_glide_gscore>  (187) 
-2.54159

>  <r_i_glide_lipo>  (187) 
-0.191275

>  <r_i_glide_hbond>  (187) 
0

>  <r_i_glide_metal>  (187) 
-0

>  <r_i_glide_rewards>  (187) 
-0.0905212

>  <r_i_glide_evdw>  (187) 
-33.6649

>  <r_i_glide_ecoul>  (187) 
-4.18366

>  <r_i_glide_erotb>  (187) 
0.0510039

>  <r_i_glide_esite>  (187) 
0

>  <r_i_glide_emodel>  (187) 
-40.6096

>  <r_i_glide_energy>  (187) 
-37.8485

>  <r_i_glide_einternal>  (187) 
4.72309

>  <r_i_glide_intrahb_reward>  (187) 
-0

>  <i_i_glide_confnum>  (187) 
1

>  <i_i_glide_posenum>  (187) 
15

>  <r_i_glide_eff_state_penalty>  (187) 
0

>  <ligand_id>  (187) 
58

>  <original_smiles>  (187) 
CC1(C)CC(C2CC3(C)C4C(O)CC5(C)C6C(C=CC5C4(C)C(O)C(O)C3C3(C)CCC4OC3(C)C(O)CC42)COC6O)CCO1

>  <smiles>  (187) 
[H]OC1([H])OC([H])([H])C2([H])C([H])=C([H])C3([H])C(C([H])([H])[H])(C([H])([H])C([H])(O[H])C4([H])C3(C([H])([H])[H])C([H])(O[H])C([H])(O[H])C3([H])C4(C([H])([H])[H])C([H])([H])C([H])(C4([H])C([H])([H])C([H])([H])OC(C([H])([H])[H])(C([H])([H])[H])C4([H])[H])C4([H])C([H])([H])C([H])(O[H])C5(C([H])([H])[H])OC4([H])C([H])([H])C([H])([H])C35C([H])([H])[H])C12[H]

$$$$
58:0:2
     RDKit          3D

106113  0  0  1  0  0  0  0  0999 V2000
    4.7879   -2.4588   10.0810 C   0  0  0  0  0  0  0  0  0  0  0  0
    5.1500   -2.8866    8.6490 C   0  0  0  0  0  0  0  0  0  0  0  0
    6.6623   -2.6901    8.4248 C   0  0  0  0  0  0  0  0  0  0  0  0
    4.6982   -4.3469    8.4584 C   0  0  0  0  0  0  0  0  0  0  0  0
    4.7595   -4.7958    6.9808 C   0  0  1  0  0  0  0  0  0  0  0  0
    4.3262   -6.2829    6.7479 C   0  0  2  0  0  0  0  0  0  0  0  0
    4.6581   -6.9779    5.3466 C   0  0  0  0  0  0  0  0  0  0  0  0
    3.9200   -6.9750    3.9071 C   0  0  2  0  0  0  0  0  0  0  0  0
    4.8464   -7.9978    3.1673 C   0  0  0  0  0  0  0  0  0  0  0  0
    4.0160   -5.5901    3.0862 C   0  0  1  0  0  0  0  0  0  0  0  0
    5.3622   -4.7898    3.1844 C   0  0  1  0  0  0  0  0  0  0  0  0
    6.4376   -5.3816    2.5132 O   0  0  0  0  0  0  0  0  0  0  0  0
    5.1925   -3.2777    2.8723 C   0  0  0  0  0  0  0  0  0  0  0  0
    4.3175   -2.8808    1.6591 C   0  0  1  0  0  0  0  0  0  0  0  0
    3.5817   -1.5713    2.1003 C   0  0  0  0  0  0  0  0  0  0  0  0
    5.2242   -2.4210    0.4520 C   0  0  2  0  0  0  0  0  0  0  0  0
    4.4717   -2.0526   -0.8267 C   0  0  2  0  0  0  0  0  0  0  0  0
    3.1844   -2.8247   -1.0142 C   0  0  0  0  0  0  0  0  0  0  0  0
    2.6294   -3.6296   -0.0994 C   0  0  0  0  0  0  0  0  0  0  0  0
    3.1837   -3.9202    1.3003 C   0  0  1  0  0  0  0  0  0  0  0  0
    3.3723   -5.4779    1.6379 C   0  0  1  0  0  0  0  0  0  0  0  0
    4.2016   -6.1637    0.5072 C   0  0  0  0  0  0  0  0  0  0  0  0
    1.9485   -6.1493    1.7380 C   0  0  1  0  0  0  0  0  0  0  0  0
    1.2818   -6.2354    0.4738 O   0  0  0  0  0  0  0  0  0  0  0  0
    1.8579   -7.5517    2.3938 C   0  0  1  0  0  0  0  0  0  0  0  0
    2.3795   -8.5987    1.5785 O   0  0  0  0  0  0  0  0  0  0  0  0
    2.4265   -7.6032    3.8599 C   0  0  2  0  0  0  0  0  0  0  0  0
    1.3306   -7.2684    4.9998 C   0  0  2  0  0  0  0  0  0  0  0  0
   -0.1409   -7.1881    4.4539 C   0  0  0  0  0  0  0  0  0  0  0  0
    1.5221   -5.7868    5.4461 C   0  0  0  0  0  0  0  0  0  0  0  0
    1.1071   -5.4864    6.8780 C   0  0  0  0  0  0  0  0  0  0  0  0
    1.6922   -6.5697    7.7548 C   0  0  1  0  0  0  0  0  0  0  0  0
    0.8659   -7.6805    7.4100 O   0  0  0  0  0  0  0  0  0  0  0  0
    1.2968   -8.3554    6.2287 C   0  0  1  0  0  0  0  0  0  0  0  0
    0.2149   -9.4527    6.0422 C   0  0  0  0  0  0  0  0  0  0  0  0
    2.5524   -9.1422    6.7775 C   0  0  1  0  0  0  0  0  0  0  0  0
    3.3052   -9.9013    5.8577 O   0  0  0  0  0  0  0  0  0  0  0  0
    3.4117   -8.4180    7.8099 C   0  0  0  0  0  0  0  0  0  0  0  0
    3.2363   -6.9083    7.7134 C   0  0  1  0  0  0  0  0  0  0  0  0
    5.4952   -2.3577   -1.9101 C   0  0  0  0  0  0  0  0  0  0  0  0
    6.1931   -3.4944   -1.4167 O   0  0  0  0  0  0  0  0  0  0  0  0
    6.2787   -3.4379   -0.0320 C   0  0  1  0  0  0  0  0  0  0  0  0
    7.5721   -3.0254    0.4080 O   0  0  0  0  0  0  0  0  0  0  0  0
    4.0531   -3.7408    6.1116 C   0  0  0  0  0  0  0  0  0  0  0  0
    4.5623   -2.3169    6.3847 C   0  0  0  0  0  0  0  0  0  0  0  0
    4.4367   -2.0062    7.7776 O   0  0  0  0  0  0  0  0  0  0  0  0
    5.3662   -3.0387   10.8049 H   0  0  0  0  0  0  0  0  0  0  0  0
    3.7313   -2.6248   10.3010 H   0  0  0  0  0  0  0  0  0  0  0  0
    5.0002   -1.4035   10.2364 H   0  0  0  0  0  0  0  0  0  0  0  0
    7.2374   -3.2590    9.1555 H   0  0  0  0  0  0  0  0  0  0  0  0
    6.9228   -1.6370    8.5237 H   0  0  0  0  0  0  0  0  0  0  0  0
    6.9938   -3.0125    7.4379 H   0  0  0  0  0  0  0  0  0  0  0  0
    5.2845   -5.0193    9.0961 H   0  0  0  0  0  0  0  0  0  0  0  0
    3.6575   -4.4234    8.7776 H   0  0  0  0  0  0  0  0  0  0  0  0
    5.8029   -4.7656    6.6937 H   0  0  0  0  0  0  0  0  0  0  0  0
    5.1817   -6.7317    7.2607 H   0  0  0  0  0  0  0  0  0  0  0  0
    5.6874   -6.6854    5.1540 H   0  0  0  0  0  0  0  0  0  0  0  0
    4.8197   -8.0306    5.5746 H   0  0  0  0  0  0  0  0  0  0  0  0
    4.6697   -8.0836    2.1031 H   0  0  0  0  0  0  0  0  0  0  0  0
    4.7423   -9.0015    3.5817 H   0  0  0  0  0  0  0  0  0  0  0  0
    5.9016   -7.7452    3.2551 H   0  0  0  0  0  0  0  0  0  0  0  0
    3.3132   -4.9445    3.5869 H   0  0  0  0  0  0  0  0  0  0  0  0
    5.7118   -4.7754    4.2133 H   0  0  0  0  0  0  0  0  0  0  0  0
    6.6601   -6.1997    2.9143 H   0  0  0  0  0  0  0  0  0  0  0  0
    4.7655   -2.8227    3.7428 H   0  0  0  0  0  0  0  0  0  0  0  0
    6.1738   -2.7962    2.7920 H   0  0  0  0  0  0  0  0  0  0  0  0
    2.9405   -1.1642    1.3189 H   0  0  0  0  0  0  0  0  0  0  0  0
    4.2911   -0.7982    2.3920 H   0  0  0  0  0  0  0  0  0  0  0  0
    2.9446   -1.7528    2.9647 H   0  0  0  0  0  0  0  0  0  0  0  0
    5.7578   -1.5201    0.7551 H   0  0  0  0  0  0  0  0  0  0  0  0
    4.2027   -0.9924   -0.8311 H   0  0  0  0  0  0  0  0  0  0  0  0
    2.6806   -2.6735   -1.9571 H   0  0  0  0  0  0  0  0  0  0  0  0
    1.6946   -4.0823   -0.3627 H   0  0  0  0  0  0  0  0  0  0  0  0
    2.3535   -3.6261    1.9398 H   0  0  0  0  0  0  0  0  0  0  0  0
    4.2497   -5.5728   -0.4077 H   0  0  0  0  0  0  0  0  0  0  0  0
    3.8127   -7.1303    0.2124 H   0  0  0  0  0  0  0  0  0  0  0  0
    5.2263   -6.3706    0.7795 H   0  0  0  0  0  0  0  0  0  0  0  0
    1.3267   -5.5055    2.3560 H   0  0  0  0  0  0  0  0  0  0  0  0
    1.8528   -6.6992   -0.0897 H   0  0  0  0  0  0  0  0  0  0  0  0
    0.8168   -7.8509    2.3552 H   0  0  0  0  0  0  0  0  0  0  0  0
    3.3036   -8.5948    1.6459 H   0  0  0  0  0  0  0  0  0  0  0  0
    2.5314   -8.6699    3.9904 H   0  0  0  0  0  0  0  0  0  0  0  0
   -0.8460   -6.9314    5.2513 H   0  0  0  0  0  0  0  0  0  0  0  0
   -0.4979   -8.1153    4.0071 H   0  0  0  0  0  0  0  0  0  0  0  0
   -0.2762   -6.4180    3.6961 H   0  0  0  0  0  0  0  0  0  0  0  0
    2.5398   -5.5072    5.3796 H   0  0  0  0  0  0  0  0  0  0  0  0
    1.0235   -5.0806    4.7808 H   0  0  0  0  0  0  0  0  0  0  0  0
    1.3927   -4.5051    7.2301 H   0  0  0  0  0  0  0  0  0  0  0  0
    0.0266   -5.4638    6.9800 H   0  0  0  0  0  0  0  0  0  0  0  0
    1.4387   -6.3070    8.7815 H   0  0  0  0  0  0  0  0  0  0  0  0
    0.3771   -9.9956    5.1105 H   0  0  0  0  0  0  0  0  0  0  0  0
   -0.7968   -9.0519    6.0465 H   0  0  0  0  0  0  0  0  0  0  0  0
    0.2101  -10.1857    6.8505 H   0  0  0  0  0  0  0  0  0  0  0  0
    2.1813   -9.9503    7.4072 H   0  0  0  0  0  0  0  0  0  0  0  0
    2.8666  -10.7230    5.7477 H   0  0  0  0  0  0  0  0  0  0  0  0
    3.0701   -8.7087    8.8073 H   0  0  0  0  0  0  0  0  0  0  0  0
    4.4559   -8.7264    7.7731 H   0  0  0  0  0  0  0  0  0  0  0  0
    3.5747   -6.6112    8.7010 H   0  0  0  0  0  0  0  0  0  0  0  0
    5.0531   -2.5670   -2.8840 H   0  0  0  0  0  0  0  0  0  0  0  0
    6.1801   -1.5193   -2.0080 H   0  0  0  0  0  0  0  0  0  0  0  0
    6.1233   -4.4291    0.3172 H   0  0  0  0  0  0  0  0  0  0  0  0
    7.6264   -2.1109    0.3951 H   0  0  0  0  0  0  0  0  0  0  0  0
    4.1893   -4.0089    5.1506 H   0  0  0  0  0  0  0  0  0  0  0  0
    2.9720   -3.7117    6.3617 H   0  0  0  0  0  0  0  0  0  0  0  0
    5.5822   -2.1736    6.0518 H   0  0  0  0  0  0  0  0  0  0  0  0
    3.9382   -1.6398    5.8093 H   0  0  0  0  0  0  0  0  0  0  0  0
  1  2  1  0
  1 47  1  0
  1 48  1  0
  1 49  1  0
  2 46  1  0
  2  3  1  0
  2  4  1  0
  3 50  1  0
  3 51  1  0
  3 52  1  0
  4  5  1  0
  4 53  1  0
  4 54  1  0
  5  6  1  0
  5 44  1  0
  5 55  1  6
  6 39  1  0
  6  7  1  0
  6 56  1  1
  7  8  1  0
  7 57  1  0
  7 58  1  0
  8 27  1  0
  8  9  1  6
  8 10  1  0
  9 59  1  0
  9 60  1  0
  9 61  1  0
 10 21  1  0
 10 11  1  0
 10 62  1  1
 11 12  1  0
 11 13  1  0
 11 63  1  1
 12 64  1  0
 13 14  1  0
 13 65  1  0
 13 66  1  0
 14 20  1  0
 14 15  1  1
 14 16  1  0
 15 67  1  0
 15 68  1  0
 15 69  1  0
 16 42  1  0
 16 17  1  0
 16 70  1  1
 17 18  1  0
 17 40  1  0
 17 71  1  1
 18 19  2  0
 18 72  1  0
 19 20  1  0
 19 73  1  0
 20 21  1  0
 20 74  1  1
 21 22  1  6
 21 23  1  0
 22 75  1  0
 22 76  1  0
 22 77  1  0
 23 24  1  0
 23 25  1  0
 23 78  1  1
 24 79  1  0
 25 26  1  0
 25 27  1  0
 25 80  1  1
 26 81  1  0
 27 28  1  0
 27 82  1  1
 28 34  1  0
 28 29  1  6
 28 30  1  0
 29 83  1  0
 29 84  1  0
 29 85  1  0
 30 31  1  0
 30 86  1  0
 30 87  1  0
 31 32  1  0
 31 88  1  0
 31 89  1  0
 32 39  1  0
 32 33  1  0
 32 90  1  1
 33 34  1  0
 34 35  1  6
 34 36  1  0
 35 91  1  0
 35 92  1  0
 35 93  1  0
 36 37  1  0
 36 38  1  0
 36 94  1  1
 37 95  1  0
 38 39  1  0
 38 96  1  0
 38 97  1  0
 39 98  1  1
 40 41  1  0
 40 99  1  0
 40100  1  0
 41 42  1  0
 42 43  1  0
 42101  1  1
 43102  1  0
 44 45  1  0
 44103  1  0
 44104  1  0
 45 46  1  0
 45105  1  0
 45106  1  0
M  END
>  <i_m_ct_stereo_status>  (188) 
1

>  <s_m_source_file>  (188) 
/var/tmp/pbs.5076255.sched01/tmpi2d1958y/88otlks1nw.sdf

>  <i_m_source_file_index>  (188) 
3

>  <i_lp_mmshare_version>  (188) 
48012

>  <i_f3d_flags>  (188) 
0

>  <s_epik_input>  (188) 
W0NIM11DMShbQ0gzXSlbQ0gyXVtDQEhdKFtDSDJdW0NIMl1PMSlbQ0BIXShbQ0gyXTIpW0NASF0oW0NIMl1bQ0BASF0zW09IXSlbQ0BASF0oW0NIMl1bQ0gyXTQpT1tDQEBdMyhbQ0gzXSlbQ0BdNChbQ0gzXSlbQ0BIXTVbQ0BIXShbT0hdKVtDQEhdKFtPSF0pW0NAXShbQ0gzXSkoW0NASF02W0NAQF0yNVtDSDNdKVtDQEhdN1tDQEBdKFtDSDNdKShbQ0gyXVtDQEBIXTZbT0hdKVtDQEBIXThbQ0BIXShbQ0hdPVtDSF03KVtDSDJdT1tDQEhdOFtPSF0=

>  <s_epik_cmdline>  (188) 
J2VwaWtfcHl0aG9uJywgJy1waHQnLCAnMi4wJywgJy1waCcsICc3LjAnLCAnLXRuJywgJzgnLCAnLW1hJywgJzIwMCcsICctaW1hZScsICc8aW5maWxlLm1hZT4nLCAnLW9tYWUnLCAnPG91dGZpbGUubWFlPic=

>  <r_lp_tautomer_probability>  (188) 
1

>  <r_epik_Ionization_Penalty>  (188) 
1.98009e-06

>  <r_epik_Ionization_Penalty_Charging>  (188) 
0

>  <r_epik_Ionization_Penalty_Neutral>  (188) 
1.98009e-06

>  <r_epik_State_Penalty>  (188) 
-0

>  <r_epik_Charging_Adjusted_Penalty>  (188) 
0

>  <i_epik_Tot_Q>  (188) 
0

>  <i_epik_Tot_abs_Q>  (188) 
0

>  <s_epik_Chemistry_Notes>  (188) 
This compound contains an acetal/aminal-like group ( X-CH(R)-Y where X, Y are N, S, or O) that may be acid/base labile, releasing an aldehyde.

>  <s_lp_Force_Field>  (188) 
OPLS3e

>  <r_lp_Energy>  (188) 
190.362

>  <b_lp_Chiralities_Consistent>  (188) 
1

>  <s_lp_Variant>  (188) 
58:0-1

>  <s_i_glide_gridfile>  (188) 
pfpi4k_grid

>  <i_i_glide_lignum>  (188) 
3

>  <i_i_glide_rotatable_bonds>  (188) 
6

>  <r_i_docking_score>  (188) 
-2.50744

>  <r_i_glide_ligand_efficiency>  (188) 
-0.0545095

>  <r_i_glide_ligand_efficiency_sa>  (188) 
-0.19531

>  <r_i_glide_ligand_efficiency_ln>  (188) 
-0.519284

>  <r_i_glide_gscore>  (188) 
-2.50744

>  <r_i_glide_lipo>  (188) 
-0.227483

>  <r_i_glide_hbond>  (188) 
0

>  <r_i_glide_metal>  (188) 
-0

>  <r_i_glide_rewards>  (188) 
-0.121129

>  <r_i_glide_evdw>  (188) 
-35.2814

>  <r_i_glide_ecoul>  (188) 
-2.97172

>  <r_i_glide_erotb>  (188) 
0.0510039

>  <r_i_glide_esite>  (188) 
0

>  <r_i_glide_emodel>  (188) 
-40.1657

>  <r_i_glide_energy>  (188) 
-38.2531

>  <r_i_glide_einternal>  (188) 
1.4735

>  <r_i_glide_intrahb_reward>  (188) 
-0

>  <i_i_glide_confnum>  (188) 
1

>  <i_i_glide_posenum>  (188) 
12

>  <r_i_glide_eff_state_penalty>  (188) 
0

>  <ligand_id>  (188) 
58

>  <original_smiles>  (188) 
CC1(C)CC(C2CC3(C)C4C(O)CC5(C)C6C(C=CC5C4(C)C(O)C(O)C3C3(C)CCC4OC3(C)C(O)CC42)COC6O)CCO1

>  <smiles>  (188) 
[H]OC1([H])OC([H])([H])C2([H])C([H])=C([H])C3([H])C(C([H])([H])[H])(C([H])([H])C([H])(O[H])C4([H])C3(C([H])([H])[H])C([H])(O[H])C([H])(O[H])C3([H])C4(C([H])([H])[H])C([H])([H])C([H])(C4([H])C([H])([H])C([H])([H])OC(C([H])([H])[H])(C([H])([H])[H])C4([H])[H])C4([H])C([H])([H])C([H])(O[H])C5(C([H])([H])[H])OC4([H])C([H])([H])C([H])([H])C35C([H])([H])[H])C12[H]

$$$$
59:0:0
     RDKit          3D

 62 66  0  0  1  0  0  0  0  0999 V2000
   -1.0220   -8.3143    2.3335 C   0  0  0  0  0  0  0  0  0  0  0  0
    0.0467   -7.9816    3.3949 C   0  0  0  0  0  0  0  0  0  0  0  0
   -0.6205   -8.0795    4.7884 C   0  0  0  0  0  0  0  0  0  0  0  0
    1.2301   -8.9562    3.2607 C   0  0  0  0  0  0  0  0  0  0  0  0
    2.3983   -8.6153    4.2069 C   0  0  0  0  0  0  0  0  0  0  0  0
    2.8769   -7.1284    4.1779 C   0  0  2  0  0  0  0  0  0  0  0  0
    1.6786   -6.1126    4.1216 C   0  0  1  0  0  0  0  0  0  0  0  0
    2.0615   -4.6159    3.8893 C   0  0  0  0  0  0  0  0  0  0  0  0
    3.1643   -4.5957    2.8299 C   0  0  2  0  0  0  0  0  0  0  0  0
    4.3821   -5.3235    3.4421 C   0  0  0  0  0  0  0  0  0  0  0  0
    4.1407   -6.8159    3.2734 C   0  0  1  0  0  0  0  0  0  0  0  0
    5.3849   -7.5599    3.8058 C   0  0  0  0  0  0  0  0  0  0  0  0
    3.9787   -7.1661    1.7746 C   0  0  0  0  0  0  0  0  0  0  0  0
    4.2767   -6.4502    0.6426 C   0  0  0  0  0  0  0  0  0  0  0  0
    5.0358   -5.1548    0.5356 C   0  0  0  0  0  0  0  0  0  0  0  0
    6.2298   -5.2609    0.2609 O   0  0  0  0  0  0  0  0  0  0  0  0
    4.3961   -3.7402    0.6947 C   0  0  2  0  0  0  0  0  0  0  0  0
    3.8109   -3.4142   -0.6888 C   0  0  0  0  0  0  0  0  0  0  0  0
    5.4439   -2.7508    1.2981 C   0  0  1  0  0  0  0  0  0  0  0  0
    5.7824   -1.5429    0.5146 C   0  0  0  0  0  0  0  0  0  0  0  0
    6.6617   -1.3813   -0.3174 O   0  0  0  0  0  0  0  0  0  0  0  0
    4.8419   -0.3923    0.8776 C   0  0  0  0  0  0  0  0  0  0  0  0
    4.2254   -0.8074    2.2291 C   0  0  0  0  0  0  0  0  0  0  0  0
    4.5113   -2.3097    2.4123 C   0  0  2  0  0  0  0  0  0  0  0  0
    5.0348   -2.4365    3.7224 O   0  0  0  0  0  0  0  0  0  0  0  0
    3.5149   -3.3995    1.9592 C   0  0  2  0  0  0  0  0  0  0  0  0
    2.2529   -2.8624    1.5974 O   0  0  0  0  0  0  0  0  0  0  0  0
    0.5873   -6.5667    3.1290 C   0  0  0  0  0  0  0  0  0  0  0  0
   -1.4105   -9.3275    2.4650 H   0  0  0  0  0  0  0  0  0  0  0  0
   -0.6134   -8.2494    1.3238 H   0  0  0  0  0  0  0  0  0  0  0  0
   -1.8658   -7.6306    2.3947 H   0  0  0  0  0  0  0  0  0  0  0  0
    0.0853   -7.9430    5.6082 H   0  0  0  0  0  0  0  0  0  0  0  0
   -1.0753   -9.0594    4.9393 H   0  0  0  0  0  0  0  0  0  0  0  0
   -1.4005   -7.3314    4.8973 H   0  0  0  0  0  0  0  0  0  0  0  0
    0.8960   -9.9783    3.4468 H   0  0  0  0  0  0  0  0  0  0  0  0
    1.5807   -8.9569    2.2299 H   0  0  0  0  0  0  0  0  0  0  0  0
    2.0906   -8.8640    5.2179 H   0  0  0  0  0  0  0  0  0  0  0  0
    3.2191   -9.2997    4.0003 H   0  0  0  0  0  0  0  0  0  0  0  0
    3.2772   -6.9834    5.1821 H   0  0  0  0  0  0  0  0  0  0  0  0
    1.2065   -6.1139    5.1048 H   0  0  0  0  0  0  0  0  0  0  0  0
    1.1957   -4.0387    3.5735 H   0  0  0  0  0  0  0  0  0  0  0  0
    2.4201   -4.1530    4.8094 H   0  0  0  0  0  0  0  0  0  0  0  0
    2.6565   -5.1992    2.0848 H   0  0  0  0  0  0  0  0  0  0  0  0
    5.3428   -5.0242    3.0228 H   0  0  0  0  0  0  0  0  0  0  0  0
    4.4892   -5.0658    4.4969 H   0  0  0  0  0  0  0  0  0  0  0  0
    5.5506   -7.3629    4.8654 H   0  0  0  0  0  0  0  0  0  0  0  0
    6.2850   -7.2453    3.2739 H   0  0  0  0  0  0  0  0  0  0  0  0
    5.3057   -8.6412    3.6809 H   0  0  0  0  0  0  0  0  0  0  0  0
    3.5254   -8.1329    1.6121 H   0  0  0  0  0  0  0  0  0  0  0  0
    4.0607   -6.9326   -0.2972 H   0  0  0  0  0  0  0  0  0  0  0  0
    3.3993   -2.4001   -0.7399 H   0  0  0  0  0  0  0  0  0  0  0  0
    3.0011   -4.0866   -0.9553 H   0  0  0  0  0  0  0  0  0  0  0  0
    4.5619   -3.4767   -1.4765 H   0  0  0  0  0  0  0  0  0  0  0  0
    6.3204   -3.2533    1.7049 H   0  0  0  0  0  0  0  0  0  0  0  0
    5.3946    0.5446    0.9394 H   0  0  0  0  0  0  0  0  0  0  0  0
    4.0667   -0.3032    0.1117 H   0  0  0  0  0  0  0  0  0  0  0  0
    4.6955   -0.2018    3.0111 H   0  0  0  0  0  0  0  0  0  0  0  0
    3.1635   -0.5658    2.2685 H   0  0  0  0  0  0  0  0  0  0  0  0
    4.3510   -2.1678    4.3051 H   0  0  0  0  0  0  0  0  0  0  0  0
    2.4088   -2.1647    0.9855 H   0  0  0  0  0  0  0  0  0  0  0  0
    0.9945   -6.5554    2.1150 H   0  0  0  0  0  0  0  0  0  0  0  0
   -0.2253   -5.8564    3.1460 H   0  0  0  0  0  0  0  0  0  0  0  0
  1  2  1  0
  1 29  1  0
  1 30  1  0
  1 31  1  0
  2 28  1  0
  2  3  1  0
  2  4  1  0
  3 32  1  0
  3 33  1  0
  3 34  1  0
  4  5  1  0
  4 35  1  0
  4 36  1  0
  5  6  1  0
  5 37  1  0
  5 38  1  0
  6 11  1  0
  6  7  1  0
  6 39  1  1
  7  8  1  0
  7 28  1  0
  7 40  1  1
  8  9  1  0
  8 41  1  0
  8 42  1  0
  9 26  1  0
  9 10  1  0
  9 43  1  6
 10 11  1  0
 10 44  1  0
 10 45  1  0
 11 12  1  1
 11 13  1  0
 12 46  1  0
 12 47  1  0
 12 48  1  0
 13 14  2  3
 13 49  1  0
 14 15  1  0
 14 50  1  0
 15 16  2  0
 15 17  1  0
 17 26  1  0
 17 18  1  6
 17 19  1  0
 18 51  1  0
 18 52  1  0
 18 53  1  0
 19 24  1  0
 19 20  1  0
 19 54  1  1
 20 21  2  0
 20 22  1  0
 22 23  1  0
 22 55  1  0
 22 56  1  0
 23 24  1  0
 23 57  1  0
 23 58  1  0
 24 25  1  1
 24 26  1  0
 25 59  1  0
 26 27  1  6
 27 60  1  0
 28 61  1  0
 28 62  1  0
M  END
>  <i_m_ct_stereo_status>  (189) 
1

>  <s_m_source_file>  (189) 
/var/tmp/pbs.5076255.sched01/tmpi2d1958y/88otlks1nw.sdf

>  <i_m_source_file_index>  (189) 
4

>  <i_lp_mmshare_version>  (189) 
48012

>  <i_f3d_flags>  (189) 
0

>  <s_epik_input>  (189) 
W0NIMl0xW0NIMl1DKFtDSDNdKShbQ0gzXSlbQ0gyXVtDQEBIXShbQ0BASF0xW0NAXTIzW0NIM10pW0NIMl1bQ0BIXShbQ0gyXTIpW0NAXTQoW09IXSlbQ0BdKFtDSDNdKShDKD1PKS9bQ0hdPVtDSF1cMylbQ0BASF01W0NAQF00KFtPSF0pW0NIMl1bQ0gyXUM1PU8=

>  <s_epik_cmdline>  (189) 
J2VwaWtfcHl0aG9uJywgJy1waHQnLCAnMi4wJywgJy1waCcsICc3LjAnLCAnLXRuJywgJzgnLCAnLW1hJywgJzIwMCcsICctaW1hZScsICc8aW5maWxlLm1hZT4nLCAnLW9tYWUnLCAnPG91dGZpbGUubWFlPic=

>  <r_lp_tautomer_probability>  (189) 
1

>  <r_epik_Ionization_Penalty>  (189) 
1.4531e-07

>  <r_epik_Ionization_Penalty_Charging>  (189) 
0

>  <r_epik_Ionization_Penalty_Neutral>  (189) 
1.4531e-07

>  <r_epik_State_Penalty>  (189) 
-0

>  <r_epik_Charging_Adjusted_Penalty>  (189) 
0

>  <i_epik_Tot_Q>  (189) 
0

>  <i_epik_Tot_abs_Q>  (189) 
0

>  <s_lp_Force_Field>  (189) 
OPLS3e

>  <r_lp_Energy>  (189) 
88.0939

>  <b_lp_Chiralities_Consistent>  (189) 
1

>  <s_lp_Variant>  (189) 
59:0-1

>  <s_i_glide_gridfile>  (189) 
pfpi4k_grid

>  <i_i_glide_lignum>  (189) 
4

>  <i_i_glide_rotatable_bonds>  (189) 
2

>  <r_i_docking_score>  (189) 
-3.19438

>  <r_i_glide_ligand_efficiency>  (189) 
-0.114085

>  <r_i_glide_ligand_efficiency_sa>  (189) 
-0.346429

>  <r_i_glide_ligand_efficiency_ln>  (189) 
-0.737356

>  <r_i_glide_gscore>  (189) 
-3.19438

>  <r_i_glide_lipo>  (189) 
-0.551442

>  <r_i_glide_hbond>  (189) 
-0.108936

>  <r_i_glide_metal>  (189) 
-0

>  <r_i_glide_rewards>  (189) 
-1.01003

>  <r_i_glide_evdw>  (189) 
-20.8536

>  <r_i_glide_ecoul>  (189) 
-3.20861

>  <r_i_glide_erotb>  (189) 
0

>  <r_i_glide_esite>  (189) 
0

>  <r_i_glide_emodel>  (189) 
-28.8168

>  <r_i_glide_energy>  (189) 
-24.0622

>  <r_i_glide_einternal>  (189) 
0.853112

>  <r_i_glide_intrahb_reward>  (189) 
-0

>  <i_i_glide_confnum>  (189) 
2

>  <i_i_glide_posenum>  (189) 
10

>  <r_i_glide_eff_state_penalty>  (189) 
0

>  <ligand_id>  (189) 
59

>  <original_smiles>  (189) 
CC1(C)CCC2C(CC3CC2(C)C=CC(=O)C2(C)C4C(=O)CCC4(O)C32O)C1

>  <smiles>  (189) 
[H]OC12C([H])([H])C([H])([H])C(=O)C1([H])C1(C([H])([H])[H])C(=O)C([H])=C([H])C3(C([H])([H])[H])C([H])([H])C([H])(C([H])([H])C4([H])C([H])([H])C(C([H])([H])[H])(C([H])([H])[H])C([H])([H])C([H])([H])C43[H])C21O[H]

$$$$
59:0:1
     RDKit          3D

 62 66  0  0  1  0  0  0  0  0999 V2000
    5.0584   -1.1562   -0.3308 C   0  0  0  0  0  0  0  0  0  0  0  0
    5.6259   -2.5912   -0.3567 C   0  0  0  0  0  0  0  0  0  0  0  0
    6.1834   -2.8526   -1.7791 C   0  0  0  0  0  0  0  0  0  0  0  0
    6.7173   -2.7378    0.7161 C   0  0  0  0  0  0  0  0  0  0  0  0
    7.2578   -4.1770    0.8398 C   0  0  0  0  0  0  0  0  0  0  0  0
    6.1628   -5.2834    0.9840 C   0  0  2  0  0  0  0  0  0  0  0  0
    4.9384   -5.0525    0.0293 C   0  0  1  0  0  0  0  0  0  0  0  0
    3.7178   -6.0005    0.2422 C   0  0  0  0  0  0  0  0  0  0  0  0
    3.5211   -6.1534    1.7542 C   0  0  2  0  0  0  0  0  0  0  0  0
    4.7881   -6.8478    2.2967 C   0  0  0  0  0  0  0  0  0  0  0  0
    5.8571   -5.7800    2.4624 C   0  0  1  0  0  0  0  0  0  0  0  0
    7.1020   -6.4446    3.0826 C   0  0  0  0  0  0  0  0  0  0  0  0
    5.3528   -4.6840    3.4301 C   0  0  0  0  0  0  0  0  0  0  0  0
    4.3086   -4.6607    4.3149 C   0  0  0  0  0  0  0  0  0  0  0  0
    3.4273   -5.8045    4.7489 C   0  0  0  0  0  0  0  0  0  0  0  0
    3.7404   -6.3355    5.8101 O   0  0  0  0  0  0  0  0  0  0  0  0
    2.1527   -6.2655    3.9825 C   0  0  2  0  0  0  0  0  0  0  0  0
    1.0428   -5.3319    4.4651 C   0  0  0  0  0  0  0  0  0  0  0  0
    1.9420   -7.8104    4.1782 C   0  0  1  0  0  0  0  0  0  0  0  0
    0.6629   -8.2763    4.7802 C   0  0  0  0  0  0  0  0  0  0  0  0
    0.3322   -8.4575    5.9540 O   0  0  0  0  0  0  0  0  0  0  0  0
   -0.3682   -8.5173    3.6740 C   0  0  0  0  0  0  0  0  0  0  0  0
    0.4553   -8.6033    2.3725 C   0  0  0  0  0  0  0  0  0  0  0  0
    1.8464   -8.0438    2.6785 C   0  0  2  0  0  0  0  0  0  0  0  0
    2.7425   -9.0165    2.1541 O   0  0  0  0  0  0  0  0  0  0  0  0
    2.2282   -6.5736    2.4287 C   0  0  2  0  0  0  0  0  0  0  0  0
    1.2320   -5.8524    1.7072 O   0  0  0  0  0  0  0  0  0  0  0  0
    4.4894   -3.5731   -0.0182 C   0  0  0  0  0  0  0  0  0  0  0  0
    5.8261   -0.4139   -0.5509 H   0  0  0  0  0  0  0  0  0  0  0  0
    4.6396   -0.9127    0.6484 H   0  0  0  0  0  0  0  0  0  0  0  0
    4.2629   -1.0355   -1.0629 H   0  0  0  0  0  0  0  0  0  0  0  0
    6.6677   -3.8247   -1.8565 H   0  0  0  0  0  0  0  0  0  0  0  0
    6.9336   -2.1155   -2.0604 H   0  0  0  0  0  0  0  0  0  0  0  0
    5.3875   -2.8387   -2.5191 H   0  0  0  0  0  0  0  0  0  0  0  0
    7.5463   -2.0584    0.5064 H   0  0  0  0  0  0  0  0  0  0  0  0
    6.3228   -2.4105    1.6777 H   0  0  0  0  0  0  0  0  0  0  0  0
    7.8584   -4.3886   -0.0394 H   0  0  0  0  0  0  0  0  0  0  0  0
    7.9541   -4.2094    1.6702 H   0  0  0  0  0  0  0  0  0  0  0  0
    6.6531   -6.1629    0.5617 H   0  0  0  0  0  0  0  0  0  0  0  0
    5.2662   -5.2788   -0.9851 H   0  0  0  0  0  0  0  0  0  0  0  0
    2.8314   -5.6084   -0.2470 H   0  0  0  0  0  0  0  0  0  0  0  0
    3.9234   -6.9739   -0.1998 H   0  0  0  0  0  0  0  0  0  0  0  0
    3.5144   -5.0907    1.9793 H   0  0  0  0  0  0  0  0  0  0  0  0
    4.6338   -7.4034    3.2207 H   0  0  0  0  0  0  0  0  0  0  0  0
    5.1292   -7.6146    1.6031 H   0  0  0  0  0  0  0  0  0  0  0  0
    7.5078   -7.2277    2.4403 H   0  0  0  0  0  0  0  0  0  0  0  0
    6.8579   -6.9040    4.0409 H   0  0  0  0  0  0  0  0  0  0  0  0
    7.9035   -5.7301    3.2711 H   0  0  0  0  0  0  0  0  0  0  0  0
    5.9050   -3.7589    3.3428 H   0  0  0  0  0  0  0  0  0  0  0  0
    4.1862   -3.7466    4.8621 H   0  0  0  0  0  0  0  0  0  0  0  0
    0.0618   -5.6090    4.0563 H   0  0  0  0  0  0  0  0  0  0  0  0
    1.2165   -4.2972    4.1690 H   0  0  0  0  0  0  0  0  0  0  0  0
    0.9383   -5.3549    5.5502 H   0  0  0  0  0  0  0  0  0  0  0  0
    2.8362   -8.2924    4.5759 H   0  0  0  0  0  0  0  0  0  0  0  0
   -0.9252   -9.4192    3.8687 H   0  0  0  0  0  0  0  0  0  0  0  0
   -1.0341   -7.6656    3.6437 H   0  0  0  0  0  0  0  0  0  0  0  0
    0.4947   -9.6560    2.0758 H   0  0  0  0  0  0  0  0  0  0  0  0
   -0.0418   -8.0803    1.5531 H   0  0  0  0  0  0  0  0  0  0  0  0
    3.5960   -8.7892    2.4426 H   0  0  0  0  0  0  0  0  0  0  0  0
    1.5770   -4.9637    1.6804 H   0  0  0  0  0  0  0  0  0  0  0  0
    4.1219   -3.2971    0.9730 H   0  0  0  0  0  0  0  0  0  0  0  0
    3.6578   -3.4478   -0.7034 H   0  0  0  0  0  0  0  0  0  0  0  0
  1  2  1  0
  1 29  1  0
  1 30  1  0
  1 31  1  0
  2 28  1  0
  2  3  1  0
  2  4  1  0
  3 32  1  0
  3 33  1  0
  3 34  1  0
  4  5  1  0
  4 35  1  0
  4 36  1  0
  5  6  1  0
  5 37  1  0
  5 38  1  0
  6 11  1  0
  6  7  1  0
  6 39  1  6
  7  8  1  0
  7 28  1  0
  7 40  1  6
  8  9  1  0
  8 41  1  0
  8 42  1  0
  9 26  1  0
  9 10  1  0
  9 43  1  1
 10 11  1  0
 10 44  1  0
 10 45  1  0
 11 12  1  1
 11 13  1  0
 12 46  1  0
 12 47  1  0
 12 48  1  0
 13 14  2  3
 13 49  1  0
 14 15  1  0
 14 50  1  0
 15 16  2  0
 15 17  1  0
 17 26  1  0
 17 18  1  6
 17 19  1  0
 18 51  1  0
 18 52  1  0
 18 53  1  0
 19 24  1  0
 19 20  1  0
 19 54  1  1
 20 21  2  0
 20 22  1  0
 22 23  1  0
 22 55  1  0
 22 56  1  0
 23 24  1  0
 23 57  1  0
 23 58  1  0
 24 25  1  6
 24 26  1  0
 25 59  1  0
 26 27  1  6
 27 60  1  0
 28 61  1  0
 28 62  1  0
M  END
>  <i_m_ct_stereo_status>  (190) 
1

>  <s_m_source_file>  (190) 
/var/tmp/pbs.5076255.sched01/tmpi2d1958y/88otlks1nw.sdf

>  <i_m_source_file_index>  (190) 
4

>  <i_lp_mmshare_version>  (190) 
48012

>  <i_f3d_flags>  (190) 
0

>  <s_epik_input>  (190) 
W0NIMl0xW0NIMl1DKFtDSDNdKShbQ0gzXSlbQ0gyXVtDQEBIXShbQ0BASF0xW0NAXTIzW0NIM10pW0NIMl1bQ0BIXShbQ0gyXTIpW0NAXTQoW09IXSlbQ0BdKFtDSDNdKShDKD1PKS9bQ0hdPVtDSF1cMylbQ0BASF01W0NAQF00KFtPSF0pW0NIMl1bQ0gyXUM1PU8=

>  <s_epik_cmdline>  (190) 
J2VwaWtfcHl0aG9uJywgJy1waHQnLCAnMi4wJywgJy1waCcsICc3LjAnLCAnLXRuJywgJzgnLCAnLW1hJywgJzIwMCcsICctaW1hZScsICc8aW5maWxlLm1hZT4nLCAnLW9tYWUnLCAnPG91dGZpbGUubWFlPic=

>  <r_lp_tautomer_probability>  (190) 
1

>  <r_epik_Ionization_Penalty>  (190) 
1.4531e-07

>  <r_epik_Ionization_Penalty_Charging>  (190) 
0

>  <r_epik_Ionization_Penalty_Neutral>  (190) 
1.4531e-07

>  <r_epik_State_Penalty>  (190) 
-0

>  <r_epik_Charging_Adjusted_Penalty>  (190) 
0

>  <i_epik_Tot_Q>  (190) 
0

>  <i_epik_Tot_abs_Q>  (190) 
0

>  <s_lp_Force_Field>  (190) 
OPLS3e

>  <r_lp_Energy>  (190) 
88.0939

>  <b_lp_Chiralities_Consistent>  (190) 
1

>  <s_lp_Variant>  (190) 
59:0-1

>  <s_i_glide_gridfile>  (190) 
pfpi4k_grid

>  <i_i_glide_lignum>  (190) 
4

>  <i_i_glide_rotatable_bonds>  (190) 
2

>  <r_i_docking_score>  (190) 
-2.83024

>  <r_i_glide_ligand_efficiency>  (190) 
-0.10108

>  <r_i_glide_ligand_efficiency_sa>  (190) 
-0.306939

>  <r_i_glide_ligand_efficiency_ln>  (190) 
-0.653303

>  <r_i_glide_gscore>  (190) 
-2.83024

>  <r_i_glide_lipo>  (190) 
-0.480005

>  <r_i_glide_hbond>  (190) 
-0.127605

>  <r_i_glide_metal>  (190) 
-0

>  <r_i_glide_rewards>  (190) 
-0.773698

>  <r_i_glide_evdw>  (190) 
-21.4115

>  <r_i_glide_ecoul>  (190) 
-2.35845

>  <r_i_glide_erotb>  (190) 
0

>  <r_i_glide_esite>  (190) 
-0.0245911

>  <r_i_glide_emodel>  (190) 
-27.8058

>  <r_i_glide_energy>  (190) 
-23.77

>  <r_i_glide_einternal>  (190) 
0.931855

>  <r_i_glide_intrahb_reward>  (190) 
-0

>  <i_i_glide_confnum>  (190) 
2

>  <i_i_glide_posenum>  (190) 
26

>  <r_i_glide_eff_state_penalty>  (190) 
0

>  <ligand_id>  (190) 
59

>  <original_smiles>  (190) 
CC1(C)CCC2C(CC3CC2(C)C=CC(=O)C2(C)C4C(=O)CCC4(O)C32O)C1

>  <smiles>  (190) 
[H]OC12C([H])([H])C([H])([H])C(=O)C1([H])C1(C([H])([H])[H])C(=O)C([H])=C([H])C3(C([H])([H])[H])C([H])([H])C([H])(C([H])([H])C4([H])C([H])([H])C(C([H])([H])[H])(C([H])([H])[H])C([H])([H])C([H])([H])C43[H])C21O[H]

$$$$
59:0:2
     RDKit          3D

 62 66  0  0  1  0  0  0  0  0999 V2000
    0.6479  -10.2020    3.6517 C   0  0  0  0  0  0  0  0  0  0  0  0
    0.7573   -8.8598    4.4075 C   0  0  0  0  0  0  0  0  0  0  0  0
   -0.5734   -8.6348    5.1737 C   0  0  0  0  0  0  0  0  0  0  0  0
    1.9572   -8.9018    5.3680 C   0  0  0  0  0  0  0  0  0  0  0  0
    2.2070   -7.5571    6.0796 C   0  0  0  0  0  0  0  0  0  0  0  0
    2.2612   -6.3057    5.1435 C   0  0  2  0  0  0  0  0  0  0  0  0
    1.1568   -6.3361    4.0344 C   0  0  1  0  0  0  0  0  0  0  0  0
    1.2577   -5.2299    2.9395 C   0  0  0  0  0  0  0  0  0  0  0  0
    2.7390   -5.0944    2.5721 C   0  0  2  0  0  0  0  0  0  0  0  0
    3.4648   -4.5970    3.8420 C   0  0  0  0  0  0  0  0  0  0  0  0
    3.7082   -5.8116    4.7253 C   0  0  1  0  0  0  0  0  0  0  0  0
    4.5064   -5.3449    5.9608 C   0  0  0  0  0  0  0  0  0  0  0  0
    4.5633   -6.8537    3.9710 C   0  0  0  0  0  0  0  0  0  0  0  0
    5.3164   -6.7534    2.8264 C   0  0  0  0  0  0  0  0  0  0  0  0
    5.6777   -5.5052    2.0523 C   0  0  0  0  0  0  0  0  0  0  0  0
    6.8040   -5.0635    2.2767 O   0  0  0  0  0  0  0  0  0  0  0  0
    4.7772   -4.8444    0.9638 C   0  0  2  0  0  0  0  0  0  0  0  0
    5.0894   -5.6171   -0.3026 C   0  0  0  0  0  0  0  0  0  0  0  0
    5.0275   -3.2912    0.9452 C   0  0  1  0  0  0  0  0  0  0  0  0
    5.4966   -2.6580   -0.3115 C   0  0  0  0  0  0  0  0  0  0  0  0
    6.6261   -2.4000   -0.7350 O   0  0  0  0  0  0  0  0  0  0  0  0
    4.2854   -2.2533   -1.1670 C   0  0  0  0  0  0  0  0  0  0  0  0
    3.0959   -2.2499   -0.1808 C   0  0  0  0  0  0  0  0  0  0  0  0
    3.5396   -3.0045    1.0779 C   0  0  2  0  0  0  0  0  0  0  0  0
    3.1942   -2.1430    2.1644 O   0  0  0  0  0  0  0  0  0  0  0  0
    3.2668   -4.5109    1.2755 C   0  0  2  0  0  0  0  0  0  0  0  0
    2.3886   -5.0650    0.2812 O   0  0  0  0  0  0  0  0  0  0  0  0
    1.0039   -7.7355    3.3875 C   0  0  0  0  0  0  0  0  0  0  0  0
    0.4859  -11.0361    4.3416 H   0  0  0  0  0  0  0  0  0  0  0  0
    1.5592  -10.4131    3.0884 H   0  0  0  0  0  0  0  0  0  0  0  0
   -0.1809  -10.1940    2.9485 H   0  0  0  0  0  0  0  0  0  0  0  0
   -0.5511   -7.7393    5.7937 H   0  0  0  0  0  0  0  0  0  0  0  0
   -0.7819   -9.4609    5.8559 H   0  0  0  0  0  0  0  0  0  0  0  0
   -1.4141   -8.5397    4.4906 H   0  0  0  0  0  0  0  0  0  0  0  0
    1.8146   -9.6889    6.1121 H   0  0  0  0  0  0  0  0  0  0  0  0
    2.8461   -9.1957    4.8145 H   0  0  0  0  0  0  0  0  0  0  0  0
    1.4185   -7.4145    6.8071 H   0  0  0  0  0  0  0  0  0  0  0  0
    3.1123   -7.6466    6.6755 H   0  0  0  0  0  0  0  0  0  0  0  0
    1.9328   -5.5002    5.8025 H   0  0  0  0  0  0  0  0  0  0  0  0
    0.1978   -6.1320    4.5204 H   0  0  0  0  0  0  0  0  0  0  0  0
    0.6616   -5.4969    2.0784 H   0  0  0  0  0  0  0  0  0  0  0  0
    0.8784   -4.2706    3.3001 H   0  0  0  0  0  0  0  0  0  0  0  0
    2.9302   -6.1454    2.3779 H   0  0  0  0  0  0  0  0  0  0  0  0
    4.3905   -4.0521    3.6446 H   0  0  0  0  0  0  0  0  0  0  0  0
    2.8559   -3.8522    4.3616 H   0  0  0  0  0  0  0  0  0  0  0  0
    3.9533   -4.6115    6.5479 H   0  0  0  0  0  0  0  0  0  0  0  0
    5.4495   -4.8782    5.6664 H   0  0  0  0  0  0  0  0  0  0  0  0
    4.7608   -6.1733    6.6257 H   0  0  0  0  0  0  0  0  0  0  0  0
    4.5248   -7.8377    4.4155 H   0  0  0  0  0  0  0  0  0  0  0  0
    5.8149   -7.6558    2.5090 H   0  0  0  0  0  0  0  0  0  0  0  0
    4.6137   -5.1800   -1.1878 H   0  0  0  0  0  0  0  0  0  0  0  0
    4.7707   -6.6529   -0.2502 H   0  0  0  0  0  0  0  0  0  0  0  0
    6.1558   -5.5960   -0.4898 H   0  0  0  0  0  0  0  0  0  0  0  0
    5.5552   -2.9413    1.8301 H   0  0  0  0  0  0  0  0  0  0  0  0
    4.4334   -1.2758   -1.6269 H   0  0  0  0  0  0  0  0  0  0  0  0
    4.1282   -3.0029   -1.9440 H   0  0  0  0  0  0  0  0  0  0  0  0
    2.8574   -1.2038    0.0344 H   0  0  0  0  0  0  0  0  0  0  0  0
    2.2143   -2.6779   -0.6463 H   0  0  0  0  0  0  0  0  0  0  0  0
    2.4754   -1.6234    1.8689 H   0  0  0  0  0  0  0  0  0  0  0  0
    2.8089   -4.9551   -0.5520 H   0  0  0  0  0  0  0  0  0  0  0  0
    1.9294   -7.9839    2.8575 H   0  0  0  0  0  0  0  0  0  0  0  0
    0.2203   -7.7322    2.6393 H   0  0  0  0  0  0  0  0  0  0  0  0
  1  2  1  0
  1 29  1  0
  1 30  1  0
  1 31  1  0
  2 28  1  0
  2  3  1  0
  2  4  1  0
  3 32  1  0
  3 33  1  0
  3 34  1  0
  4  5  1  0
  4 35  1  0
  4 36  1  0
  5  6  1  0
  5 37  1  0
  5 38  1  0
  6 11  1  0
  6  7  1  0
  6 39  1  1
  7  8  1  0
  7 28  1  0
  7 40  1  1
  8  9  1  0
  8 41  1  0
  8 42  1  0
  9 26  1  0
  9 10  1  0
  9 43  1  6
 10 11  1  0
 10 44  1  0
 10 45  1  0
 11 12  1  1
 11 13  1  0
 12 46  1  0
 12 47  1  0
 12 48  1  0
 13 14  2  3
 13 49  1  0
 14 15  1  0
 14 50  1  0
 15 16  2  0
 15 17  1  0
 17 26  1  0
 17 18  1  6
 17 19  1  0
 18 51  1  0
 18 52  1  0
 18 53  1  0
 19 24  1  0
 19 20  1  0
 19 54  1  1
 20 21  2  0
 20 22  1  0
 22 23  1  0
 22 55  1  0
 22 56  1  0
 23 24  1  0
 23 57  1  0
 23 58  1  0
 24 25  1  1
 24 26  1  0
 25 59  1  0
 26 27  1  6
 27 60  1  0
 28 61  1  0
 28 62  1  0
M  END
>  <i_m_ct_stereo_status>  (191) 
1

>  <s_m_source_file>  (191) 
/var/tmp/pbs.5076255.sched01/tmpi2d1958y/88otlks1nw.sdf

>  <i_m_source_file_index>  (191) 
4

>  <i_lp_mmshare_version>  (191) 
48012

>  <i_f3d_flags>  (191) 
0

>  <s_epik_input>  (191) 
W0NIMl0xW0NIMl1DKFtDSDNdKShbQ0gzXSlbQ0gyXVtDQEBIXShbQ0BASF0xW0NAXTIzW0NIM10pW0NIMl1bQ0BIXShbQ0gyXTIpW0NAXTQoW09IXSlbQ0BdKFtDSDNdKShDKD1PKS9bQ0hdPVtDSF1cMylbQ0BASF01W0NAQF00KFtPSF0pW0NIMl1bQ0gyXUM1PU8=

>  <s_epik_cmdline>  (191) 
J2VwaWtfcHl0aG9uJywgJy1waHQnLCAnMi4wJywgJy1waCcsICc3LjAnLCAnLXRuJywgJzgnLCAnLW1hJywgJzIwMCcsICctaW1hZScsICc8aW5maWxlLm1hZT4nLCAnLW9tYWUnLCAnPG91dGZpbGUubWFlPic=

>  <r_lp_tautomer_probability>  (191) 
1

>  <r_epik_Ionization_Penalty>  (191) 
1.4531e-07

>  <r_epik_Ionization_Penalty_Charging>  (191) 
0

>  <r_epik_Ionization_Penalty_Neutral>  (191) 
1.4531e-07

>  <r_epik_State_Penalty>  (191) 
-0

>  <r_epik_Charging_Adjusted_Penalty>  (191) 
0

>  <i_epik_Tot_Q>  (191) 
0

>  <i_epik_Tot_abs_Q>  (191) 
0

>  <s_lp_Force_Field>  (191) 
OPLS3e

>  <r_lp_Energy>  (191) 
88.0939

>  <b_lp_Chiralities_Consistent>  (191) 
1

>  <s_lp_Variant>  (191) 
59:0-1

>  <s_i_glide_gridfile>  (191) 
pfpi4k_grid

>  <i_i_glide_lignum>  (191) 
4

>  <i_i_glide_rotatable_bonds>  (191) 
2

>  <r_i_docking_score>  (191) 
-2.71102

>  <r_i_glide_ligand_efficiency>  (191) 
-0.096822

>  <r_i_glide_ligand_efficiency_sa>  (191) 
-0.294009

>  <r_i_glide_ligand_efficiency_ln>  (191) 
-0.625782

>  <r_i_glide_gscore>  (191) 
-2.71102

>  <r_i_glide_lipo>  (191) 
-0.0808014

>  <r_i_glide_hbond>  (191) 
-0.0918152

>  <r_i_glide_metal>  (191) 
-0

>  <r_i_glide_rewards>  (191) 
-0.820738

>  <r_i_glide_evdw>  (191) 
-18.5786

>  <r_i_glide_ecoul>  (191) 
-5.25796

>  <r_i_glide_erotb>  (191) 
0

>  <r_i_glide_esite>  (191) 
-3.74159e-05

>  <r_i_glide_emodel>  (191) 
-27.4543

>  <r_i_glide_energy>  (191) 
-23.8366

>  <r_i_glide_einternal>  (191) 
1.3272

>  <r_i_glide_intrahb_reward>  (191) 
-0

>  <i_i_glide_confnum>  (191) 
2

>  <i_i_glide_posenum>  (191) 
1

>  <r_i_glide_eff_state_penalty>  (191) 
0

>  <ligand_id>  (191) 
59

>  <original_smiles>  (191) 
CC1(C)CCC2C(CC3CC2(C)C=CC(=O)C2(C)C4C(=O)CCC4(O)C32O)C1

>  <smiles>  (191) 
[H]OC12C([H])([H])C([H])([H])C(=O)C1([H])C1(C([H])([H])[H])C(=O)C([H])=C([H])C3(C([H])([H])[H])C([H])([H])C([H])(C([H])([H])C4([H])C([H])([H])C(C([H])([H])[H])(C([H])([H])[H])C([H])([H])C([H])([H])C43[H])C21O[H]

$$$$
59:1:0
     RDKit          3D

 62 66  0  0  1  0  0  0  0  0999 V2000
    4.3757   -0.6502    1.0512 C   0  0  0  0  0  0  0  0  0  0  0  0
    4.8365   -1.6935    0.0101 C   0  0  0  0  0  0  0  0  0  0  0  0
    4.4453   -1.1902   -1.3953 C   0  0  0  0  0  0  0  0  0  0  0  0
    6.3744   -1.8739    0.0395 C   0  0  0  0  0  0  0  0  0  0  0  0
    6.8250   -2.9447    1.0398 C   0  0  0  0  0  0  0  0  0  0  0  0
    6.2884   -4.3524    0.6731 C   0  0  2  0  0  0  0  0  0  0  0  0
    4.8947   -4.2859   -0.0747 C   0  0  1  0  0  0  0  0  0  0  0  0
    3.9925   -5.5647   -0.0456 C   0  0  0  0  0  0  0  0  0  0  0  0
    4.1266   -6.1937    1.3353 C   0  0  2  0  0  0  0  0  0  0  0  0
    5.6320   -6.6006    1.4347 C   0  0  0  0  0  0  0  0  0  0  0  0
    6.4285   -5.3742    1.8794 C   0  0  1  0  0  0  0  0  0  0  0  0
    7.9100   -5.7475    2.0882 C   0  0  0  0  0  0  0  0  0  0  0  0
    5.7686   -4.9673    3.2180 C   0  0  0  0  0  0  0  0  0  0  0  0
    5.3588   -5.9439    4.0607 C   0  0  0  0  0  0  0  0  0  0  0  0
    3.9121   -6.0653    4.3629 C   0  0  0  0  0  0  0  0  0  0  0  0
    3.4354   -5.2800    5.1781 O   0  0  0  0  0  0  0  0  0  0  0  0
    3.0838   -7.1559    3.6032 C   0  0  2  0  0  0  0  0  0  0  0  0
    1.6906   -7.1258    4.2607 C   0  0  0  0  0  0  0  0  0  0  0  0
    3.7699   -8.5600    3.4836 C   0  0  1  0  0  0  0  0  0  0  0  0
    3.1779   -9.7156    4.2179 C   0  0  0  0  0  0  0  0  0  0  0  0
    3.2947  -10.0689    5.3910 O   0  0  0  0  0  0  0  0  0  0  0  0
    2.2972  -10.5372    3.2619 C   0  0  0  0  0  0  0  0  0  0  0  0
    2.1443   -9.6571    2.0035 C   0  0  0  0  0  0  0  0  0  0  0  0
    3.2981   -8.6660    2.0335 C   0  0  2  0  0  0  0  0  0  0  0  0
    4.2626   -9.1977    1.1212 O   0  0  0  0  0  0  0  0  0  0  0  0
    3.1033   -7.1349    2.0054 C   0  0  2  0  0  0  0  0  0  0  0  0
    1.8484   -6.7265    1.4647 O   0  0  0  0  0  0  0  0  0  0  0  0
    4.1121   -3.0257    0.3251 C   0  0  0  0  0  0  0  0  0  0  0  0
    4.8053    0.3361    0.8771 H   0  0  0  0  0  0  0  0  0  0  0  0
    4.6564   -0.9556    2.0618 H   0  0  0  0  0  0  0  0  0  0  0  0
    3.2906   -0.5398    1.0467 H   0  0  0  0  0  0  0  0  0  0  0  0
    4.7236   -1.9177   -2.1572 H   0  0  0  0  0  0  0  0  0  0  0  0
    4.9542   -0.2617   -1.6433 H   0  0  0  0  0  0  0  0  0  0  0  0
    3.3714   -1.0229   -1.4836 H   0  0  0  0  0  0  0  0  0  0  0  0
    6.7583   -2.1138   -0.9550 H   0  0  0  0  0  0  0  0  0  0  0  0
    6.8370   -0.9248    0.3150 H   0  0  0  0  0  0  0  0  0  0  0  0
    7.9112   -2.9780    1.0072 H   0  0  0  0  0  0  0  0  0  0  0  0
    6.5661   -2.6447    2.0517 H   0  0  0  0  0  0  0  0  0  0  0  0
    6.9678   -4.7382   -0.0861 H   0  0  0  0  0  0  0  0  0  0  0  0
    5.1197   -4.1410   -1.1308 H   0  0  0  0  0  0  0  0  0  0  0  0
    2.9566   -5.3110   -0.2827 H   0  0  0  0  0  0  0  0  0  0  0  0
    4.3235   -6.2961   -0.7758 H   0  0  0  0  0  0  0  0  0  0  0  0
    3.8847   -5.2701    1.8479 H   0  0  0  0  0  0  0  0  0  0  0  0
    5.8023   -7.4490    2.0848 H   0  0  0  0  0  0  0  0  0  0  0  0
    5.9903   -6.9698    0.4801 H   0  0  0  0  0  0  0  0  0  0  0  0
    8.3636   -6.1115    1.1684 H   0  0  0  0  0  0  0  0  0  0  0  0
    8.0172   -6.5391    2.8305 H   0  0  0  0  0  0  0  0  0  0  0  0
    8.5014   -4.9019    2.4331 H   0  0  0  0  0  0  0  0  0  0  0  0
    5.1519   -4.0817    3.1314 H   0  0  0  0  0  0  0  0  0  0  0  0
    5.9210   -6.8604    4.1069 H   0  0  0  0  0  0  0  0  0  0  0  0
    1.0011   -7.8627    3.8448 H   0  0  0  0  0  0  0  0  0  0  0  0
    1.2085   -6.1541    4.1340 H   0  0  0  0  0  0  0  0  0  0  0  0
    1.7431   -7.3294    5.3303 H   0  0  0  0  0  0  0  0  0  0  0  0
    4.8590   -8.5247    3.5503 H   0  0  0  0  0  0  0  0  0  0  0  0
    2.8268  -11.4502    3.0282 H   0  0  0  0  0  0  0  0  0  0  0  0
    1.3529  -10.7835    3.7207 H   0  0  0  0  0  0  0  0  0  0  0  0
    2.1273  -10.2097    1.0791 H   0  0  0  0  0  0  0  0  0  0  0  0
    1.1732   -9.1586    2.0571 H   0  0  0  0  0  0  0  0  0  0  0  0
    4.1255  -10.1286    1.0545 H   0  0  0  0  0  0  0  0  0  0  0  0
    1.2582   -7.4226    1.6522 H   0  0  0  0  0  0  0  0  0  0  0  0
    3.9104   -3.0740    1.3976 H   0  0  0  0  0  0  0  0  0  0  0  0
    3.1382   -3.0228   -0.1643 H   0  0  0  0  0  0  0  0  0  0  0  0
  1  2  1  0
  1 29  1  0
  1 30  1  0
  1 31  1  0
  2 28  1  0
  2  3  1  0
  2  4  1  0
  3 32  1  0
  3 33  1  0
  3 34  1  0
  4  5  1  0
  4 35  1  0
  4 36  1  0
  5  6  1  0
  5 37  1  0
  5 38  1  0
  6 11  1  0
  6  7  1  0
  6 39  1  6
  7  8  1  0
  7 28  1  0
  7 40  1  6
  8  9  1  0
  8 41  1  0
  8 42  1  0
  9 26  1  0
  9 10  1  0
  9 43  1  1
 10 11  1  0
 10 44  1  0
 10 45  1  0
 11 12  1  1
 11 13  1  0
 12 46  1  0
 12 47  1  0
 12 48  1  0
 13 14  2  3
 13 49  1  0
 14 15  1  0
 14 50  1  0
 15 16  2  0
 15 17  1  0
 17 26  1  0
 17 18  1  6
 17 19  1  0
 18 51  1  0
 18 52  1  0
 18 53  1  0
 19 24  1  0
 19 20  1  0
 19 54  1  6
 20 21  2  0
 20 22  1  0
 22 23  1  0
 22 55  1  0
 22 56  1  0
 23 24  1  0
 23 57  1  0
 23 58  1  0
 24 25  1  6
 24 26  1  0
 25 59  1  0
 26 27  1  6
 27 60  1  0
 28 61  1  0
 28 62  1  0
M  END
>  <i_m_ct_stereo_status>  (192) 
1

>  <s_m_source_file>  (192) 
/var/tmp/pbs.5076255.sched01/tmpi2d1958y/88otlks1nw.sdf

>  <i_m_source_file_index>  (192) 
5

>  <i_lp_mmshare_version>  (192) 
48012

>  <i_f3d_flags>  (192) 
0

>  <s_epik_input>  (192) 
W0NIMl0xW0NIMl1DKFtDSDNdKShbQ0gzXSlbQ0gyXVtDQEBIXShbQ0BASF0xW0NAXTIzW0NIM10pW0NIMl1bQ0BIXShbQ0gyXTIpW0NAXTQoW09IXSlbQ0BdKFtDSDNdKShDKD1PKS9bQ0hdPVtDSF1cMylbQ0BASF01W0NAQF00KFtPSF0pW0NIMl1bQ0gyXUM1PU8=

>  <s_epik_cmdline>  (192) 
J2VwaWtfcHl0aG9uJywgJy1waHQnLCAnMi4wJywgJy1waCcsICc3LjAnLCAnLXRuJywgJzgnLCAnLW1hJywgJzIwMCcsICctaW1hZScsICc8aW5maWxlLm1hZT4nLCAnLW9tYWUnLCAnPG91dGZpbGUubWFlPic=

>  <r_lp_tautomer_probability>  (192) 
1

>  <r_epik_Ionization_Penalty>  (192) 
1.4531e-07

>  <r_epik_Ionization_Penalty_Charging>  (192) 
0

>  <r_epik_Ionization_Penalty_Neutral>  (192) 
1.4531e-07

>  <r_epik_State_Penalty>  (192) 
-0

>  <r_epik_Charging_Adjusted_Penalty>  (192) 
0

>  <i_epik_Tot_Q>  (192) 
0

>  <i_epik_Tot_abs_Q>  (192) 
0

>  <s_lp_Force_Field>  (192) 
OPLS3e

>  <r_lp_Energy>  (192) 
107.423

>  <b_lp_Chiralities_Consistent>  (192) 
1

>  <s_lp_Variant>  (192) 
59:0-2

>  <s_i_glide_gridfile>  (192) 
pfpi4k_grid

>  <i_i_glide_lignum>  (192) 
5

>  <i_i_glide_rotatable_bonds>  (192) 
2

>  <r_i_docking_score>  (192) 
-2.98049

>  <r_i_glide_ligand_efficiency>  (192) 
-0.106446

>  <r_i_glide_ligand_efficiency_sa>  (192) 
-0.323233

>  <r_i_glide_ligand_efficiency_ln>  (192) 
-0.687985

>  <r_i_glide_gscore>  (192) 
-2.98049

>  <r_i_glide_lipo>  (192) 
-0.668676

>  <r_i_glide_hbond>  (192) 
0

>  <r_i_glide_metal>  (192) 
-0

>  <r_i_glide_rewards>  (192) 
-0.773698

>  <r_i_glide_evdw>  (192) 
-21.2264

>  <r_i_glide_ecoul>  (192) 
-3.12541

>  <r_i_glide_erotb>  (192) 
0

>  <r_i_glide_esite>  (192) 
-0.00798862

>  <r_i_glide_emodel>  (192) 
-28.3325

>  <r_i_glide_energy>  (192) 
-24.3518

>  <r_i_glide_einternal>  (192) 
1.33571

>  <r_i_glide_intrahb_reward>  (192) 
-0

>  <i_i_glide_confnum>  (192) 
1

>  <i_i_glide_posenum>  (192) 
32

>  <r_i_glide_eff_state_penalty>  (192) 
0

>  <ligand_id>  (192) 
59

>  <original_smiles>  (192) 
CC1(C)CCC2C(CC3CC2(C)C=CC(=O)C2(C)C4C(=O)CCC4(O)C32O)C1

>  <smiles>  (192) 
[H]OC12C([H])([H])C([H])([H])C(=O)C1([H])C1(C([H])([H])[H])C(=O)C([H])=C([H])C3(C([H])([H])[H])C([H])([H])C([H])(C([H])([H])C4([H])C([H])([H])C(C([H])([H])[H])(C([H])([H])[H])C([H])([H])C([H])([H])C43[H])C21O[H]

$$$$
59:1:1
     RDKit          3D

 62 66  0  0  1  0  0  0  0  0999 V2000
    4.4389   -1.1628    0.4988 C   0  0  0  0  0  0  0  0  0  0  0  0
    4.9426   -2.4336   -0.2250 C   0  0  0  0  0  0  0  0  0  0  0  0
    4.9262   -2.1841   -1.7488 C   0  0  0  0  0  0  0  0  0  0  0  0
    6.4003   -2.7555    0.1953 C   0  0  0  0  0  0  0  0  0  0  0  0
    6.4919   -3.6661    1.4243 C   0  0  0  0  0  0  0  0  0  0  0  0
    5.8174   -5.0440    1.2080 C   0  0  2  0  0  0  0  0  0  0  0  0
    4.6432   -4.9854    0.1410 C   0  0  1  0  0  0  0  0  0  0  0  0
    3.5763   -6.1321    0.1966 C   0  0  0  0  0  0  0  0  0  0  0  0
    3.3339   -6.4810    1.6601 C   0  0  2  0  0  0  0  0  0  0  0  0
    4.7058   -7.0247    2.1678 C   0  0  0  0  0  0  0  0  0  0  0  0
    5.5661   -5.8178    2.5653 C   0  0  1  0  0  0  0  0  0  0  0  0
    6.9031   -6.2931    3.1710 C   0  0  0  0  0  0  0  0  0  0  0  0
    4.7358   -5.0739    3.6352 C   0  0  0  0  0  0  0  0  0  0  0  0
    4.0186   -5.8017    4.5349 C   0  0  0  0  0  0  0  0  0  0  0  0
    2.5406   -5.7152    4.5046 C   0  0  0  0  0  0  0  0  0  0  0  0
    2.0092   -4.7360    5.0378 O   0  0  0  0  0  0  0  0  0  0  0  0
    1.7282   -6.8517    3.7740 C   0  0  2  0  0  0  0  0  0  0  0  0
    0.2391   -6.5443    4.0812 C   0  0  0  0  0  0  0  0  0  0  0  0
    2.1988   -8.3121    4.0567 C   0  0  1  0  0  0  0  0  0  0  0  0
    1.2944   -9.2327    4.8293 C   0  0  0  0  0  0  0  0  0  0  0  0
    1.1230   -9.3071    6.0420 O   0  0  0  0  0  0  0  0  0  0  0  0
    0.5352  -10.1322    3.8594 C   0  0  0  0  0  0  0  0  0  0  0  0
    0.7581   -9.5156    2.4701 C   0  0  0  0  0  0  0  0  0  0  0  0
    2.0294   -8.6635    2.5760 C   0  0  2  0  0  0  0  0  0  0  0  0
    3.0613   -9.4504    2.0116 O   0  0  0  0  0  0  0  0  0  0  0  0
    2.0465   -7.1454    2.2356 C   0  0  2  0  0  0  0  0  0  0  0  0
    1.0005   -6.7373    1.3685 O   0  0  0  0  0  0  0  0  0  0  0  0
    3.9819   -3.5946    0.1425 C   0  0  0  0  0  0  0  0  0  0  0  0
    5.0352   -0.2810    0.2603 H   0  0  0  0  0  0  0  0  0  0  0  0
    4.4618   -1.2915    1.5819 H   0  0  0  0  0  0  0  0  0  0  0  0
    3.4052   -0.9414    0.2267 H   0  0  0  0  0  0  0  0  0  0  0  0
    5.2465   -3.0755   -2.2917 H   0  0  0  0  0  0  0  0  0  0  0  0
    5.5988   -1.3706   -2.0277 H   0  0  0  0  0  0  0  0  0  0  0  0
    3.9281   -1.9243   -2.1041 H   0  0  0  0  0  0  0  0  0  0  0  0
    6.9331   -3.2413   -0.6238 H   0  0  0  0  0  0  0  0  0  0  0  0
    6.9456   -1.8313    0.3810 H   0  0  0  0  0  0  0  0  0  0  0  0
    7.5439   -3.8134    1.6698 H   0  0  0  0  0  0  0  0  0  0  0  0
    6.0679   -3.1415    2.2769 H   0  0  0  0  0  0  0  0  0  0  0  0
    6.5720   -5.6411    0.6948 H   0  0  0  0  0  0  0  0  0  0  0  0
    5.1005   -5.0823   -0.8426 H   0  0  0  0  0  0  0  0  0  0  0  0
    2.6608   -5.8171   -0.3052 H   0  0  0  0  0  0  0  0  0  0  0  0
    3.9321   -7.0117   -0.3345 H   0  0  0  0  0  0  0  0  0  0  0  0
    3.1258   -5.4592    1.9561 H   0  0  0  0  0  0  0  0  0  0  0  0
    4.6150   -7.7226    2.9898 H   0  0  0  0  0  0  0  0  0  0  0  0
    5.2031   -7.6260    1.4022 H   0  0  0  0  0  0  0  0  0  0  0  0
    7.4803   -6.8752    2.4505 H   0  0  0  0  0  0  0  0  0  0  0  0
    6.7438   -6.9277    4.0431 H   0  0  0  0  0  0  0  0  0  0  0  0
    7.5266   -5.4609    3.4858 H   0  0  0  0  0  0  0  0  0  0  0  0
    4.2785   -4.1689    3.2575 H   0  0  0  0  0  0  0  0  0  0  0  0
    4.4021   -6.7573    4.8417 H   0  0  0  0  0  0  0  0  0  0  0  0
   -0.4490   -7.2713    3.6520 H   0  0  0  0  0  0  0  0  0  0  0  0
   -0.0553   -5.5734    3.6863 H   0  0  0  0  0  0  0  0  0  0  0  0
    0.0442   -6.5328    5.1545 H   0  0  0  0  0  0  0  0  0  0  0  0
    3.2348   -8.3916    4.3741 H   0  0  0  0  0  0  0  0  0  0  0  0
    0.9536  -11.1388    3.9144 H   0  0  0  0  0  0  0  0  0  0  0  0
   -0.5271  -10.1784    4.1004 H   0  0  0  0  0  0  0  0  0  0  0  0
    0.8262  -10.2816    1.6988 H   0  0  0  0  0  0  0  0  0  0  0  0
   -0.1163   -8.9210    2.2071 H   0  0  0  0  0  0  0  0  0  0  0  0
    2.8251  -10.3618    2.1049 H   0  0  0  0  0  0  0  0  0  0  0  0
    0.4378   -7.4914    1.2696 H   0  0  0  0  0  0  0  0  0  0  0  0
    3.5653   -3.4169    1.1327 H   0  0  0  0  0  0  0  0  0  0  0  0
    3.1318   -3.5849   -0.5402 H   0  0  0  0  0  0  0  0  0  0  0  0
  1  2  1  0
  1 29  1  0
  1 30  1  0
  1 31  1  0
  2 28  1  0
  2  3  1  0
  2  4  1  0
  3 32  1  0
  3 33  1  0
  3 34  1  0
  4  5  1  0
  4 35  1  0
  4 36  1  0
  5  6  1  0
  5 37  1  0
  5 38  1  0
  6 11  1  0
  6  7  1  0
  6 39  1  6
  7  8  1  0
  7 28  1  0
  7 40  1  6
  8  9  1  0
  8 41  1  0
  8 42  1  0
  9 26  1  0
  9 10  1  0
  9 43  1  1
 10 11  1  0
 10 44  1  0
 10 45  1  0
 11 12  1  1
 11 13  1  0
 12 46  1  0
 12 47  1  0
 12 48  1  0
 13 14  2  3
 13 49  1  0
 14 15  1  0
 14 50  1  0
 15 16  2  0
 15 17  1  0
 17 26  1  0
 17 18  1  6
 17 19  1  0
 18 51  1  0
 18 52  1  0
 18 53  1  0
 19 24  1  0
 19 20  1  0
 19 54  1  1
 20 21  2  0
 20 22  1  0
 22 23  1  0
 22 55  1  0
 22 56  1  0
 23 24  1  0
 23 57  1  0
 23 58  1  0
 24 25  1  6
 24 26  1  0
 25 59  1  0
 26 27  1  6
 27 60  1  0
 28 61  1  0
 28 62  1  0
M  END
>  <i_m_ct_stereo_status>  (193) 
1

>  <s_m_source_file>  (193) 
/var/tmp/pbs.5076255.sched01/tmpi2d1958y/88otlks1nw.sdf

>  <i_m_source_file_index>  (193) 
5

>  <i_lp_mmshare_version>  (193) 
48012

>  <i_f3d_flags>  (193) 
0

>  <s_epik_input>  (193) 
W0NIMl0xW0NIMl1DKFtDSDNdKShbQ0gzXSlbQ0gyXVtDQEBIXShbQ0BASF0xW0NAXTIzW0NIM10pW0NIMl1bQ0BIXShbQ0gyXTIpW0NAXTQoW09IXSlbQ0BdKFtDSDNdKShDKD1PKS9bQ0hdPVtDSF1cMylbQ0BASF01W0NAQF00KFtPSF0pW0NIMl1bQ0gyXUM1PU8=

>  <s_epik_cmdline>  (193) 
J2VwaWtfcHl0aG9uJywgJy1waHQnLCAnMi4wJywgJy1waCcsICc3LjAnLCAnLXRuJywgJzgnLCAnLW1hJywgJzIwMCcsICctaW1hZScsICc8aW5maWxlLm1hZT4nLCAnLW9tYWUnLCAnPG91dGZpbGUubWFlPic=

>  <r_lp_tautomer_probability>  (193) 
1

>  <r_epik_Ionization_Penalty>  (193) 
1.4531e-07

>  <r_epik_Ionization_Penalty_Charging>  (193) 
0

>  <r_epik_Ionization_Penalty_Neutral>  (193) 
1.4531e-07

>  <r_epik_State_Penalty>  (193) 
-0

>  <r_epik_Charging_Adjusted_Penalty>  (193) 
0

>  <i_epik_Tot_Q>  (193) 
0

>  <i_epik_Tot_abs_Q>  (193) 
0

>  <s_lp_Force_Field>  (193) 
OPLS3e

>  <r_lp_Energy>  (193) 
107.423

>  <b_lp_Chiralities_Consistent>  (193) 
1

>  <s_lp_Variant>  (193) 
59:0-2

>  <s_i_glide_gridfile>  (193) 
pfpi4k_grid

>  <i_i_glide_lignum>  (193) 
5

>  <i_i_glide_rotatable_bonds>  (193) 
2

>  <r_i_docking_score>  (193) 
-2.73316

>  <r_i_glide_ligand_efficiency>  (193) 
-0.097613

>  <r_i_glide_ligand_efficiency_sa>  (193) 
-0.296411

>  <r_i_glide_ligand_efficiency_ln>  (193) 
-0.630894

>  <r_i_glide_gscore>  (193) 
-2.73316

>  <r_i_glide_lipo>  (193) 
-0.376557

>  <r_i_glide_hbond>  (193) 
0

>  <r_i_glide_metal>  (193) 
-0

>  <r_i_glide_rewards>  (193) 
-0.773698

>  <r_i_glide_evdw>  (193) 
-22.1876

>  <r_i_glide_ecoul>  (193) 
-2.98485

>  <r_i_glide_erotb>  (193) 
0

>  <r_i_glide_esite>  (193) 
-0.0258024

>  <r_i_glide_emodel>  (193) 
-28.3968

>  <r_i_glide_energy>  (193) 
-25.1724

>  <r_i_glide_einternal>  (193) 
1.93109

>  <r_i_glide_intrahb_reward>  (193) 
-0

>  <i_i_glide_confnum>  (193) 
2

>  <i_i_glide_posenum>  (193) 
38

>  <r_i_glide_eff_state_penalty>  (193) 
0

>  <ligand_id>  (193) 
59

>  <original_smiles>  (193) 
CC1(C)CCC2C(CC3CC2(C)C=CC(=O)C2(C)C4C(=O)CCC4(O)C32O)C1

>  <smiles>  (193) 
[H]OC12C([H])([H])C([H])([H])C(=O)C1([H])C1(C([H])([H])[H])C(=O)C([H])=C([H])C3(C([H])([H])[H])C([H])([H])C([H])(C([H])([H])C4([H])C([H])([H])C(C([H])([H])[H])(C([H])([H])[H])C([H])([H])C([H])([H])C43[H])C21O[H]

$$$$
59:1:2
     RDKit          3D

 62 66  0  0  1  0  0  0  0  0999 V2000
    2.3966   -0.4249    1.8712 C   0  0  0  0  0  0  0  0  0  0  0  0
    3.4707   -1.4202    1.3592 C   0  0  0  0  0  0  0  0  0  0  0  0
    3.8627   -1.0406   -0.0876 C   0  0  0  0  0  0  0  0  0  0  0  0
    4.7472   -1.3398    2.2295 C   0  0  0  0  0  0  0  0  0  0  0  0
    4.7083   -2.2780    3.4349 C   0  0  0  0  0  0  0  0  0  0  0  0
    4.6147   -3.7751    3.0116 C   0  0  2  0  0  0  0  0  0  0  0  0
    3.8701   -3.9682    1.6280 C   0  0  1  0  0  0  0  0  0  0  0  0
    3.2594   -5.3778    1.3173 C   0  0  0  0  0  0  0  0  0  0  0  0
    2.6894   -5.9193    2.6350 C   0  0  2  0  0  0  0  0  0  0  0  0
    3.9263   -6.0691    3.5746 C   0  0  0  0  0  0  0  0  0  0  0  0
    4.1949   -4.7062    4.2245 C   0  0  1  0  0  0  0  0  0  0  0  0
    5.3504   -4.8158    5.2397 C   0  0  0  0  0  0  0  0  0  0  0  0
    2.8859   -4.3504    4.9490 C   0  0  0  0  0  0  0  0  0  0  0  0
    2.1891   -5.3420    5.5757 C   0  0  0  0  0  0  0  0  0  0  0  0
    0.8329   -5.6958    5.0565 C   0  0  0  0  0  0  0  0  0  0  0  0
   -0.1052   -4.9740    5.3930 O   0  0  0  0  0  0  0  0  0  0  0  0
    0.6916   -6.9475    4.1094 C   0  0  2  0  0  0  0  0  0  0  0  0
   -0.8291   -7.1208    3.9204 C   0  0  0  0  0  0  0  0  0  0  0  0
    1.4909   -8.2225    4.5502 C   0  0  1  0  0  0  0  0  0  0  0  0
    0.7271   -9.4075    4.9968 C   0  0  0  0  0  0  0  0  0  0  0  0
    0.2173   -9.6596    6.0883 O   0  0  0  0  0  0  0  0  0  0  0  0
    0.6186  -10.4175    3.8395 C   0  0  0  0  0  0  0  0  0  0  0  0
    1.0721   -9.6361    2.5835 C   0  0  0  0  0  0  0  0  0  0  0  0
    1.8933   -8.4557    3.0963 C   0  0  2  0  0  0  0  0  0  0  0  0
    3.2542   -8.8681    2.9173 O   0  0  0  0  0  0  0  0  0  0  0  0
    1.5707   -6.9782    2.7788 C   0  0  2  0  0  0  0  0  0  0  0  0
    0.7555   -6.8050    1.6082 O   0  0  0  0  0  0  0  0  0  0  0  0
    2.8492   -2.8400    1.3976 C   0  0  0  0  0  0  0  0  0  0  0  0
    2.7364    0.6137    1.8242 H   0  0  0  0  0  0  0  0  0  0  0  0
    2.1285   -0.6390    2.9070 H   0  0  0  0  0  0  0  0  0  0  0  0
    1.4777   -0.4924    1.2999 H   0  0  0  0  0  0  0  0  0  0  0  0
    4.5950   -1.7433   -0.4907 H   0  0  0  0  0  0  0  0  0  0  0  0
    4.3022   -0.0406   -0.1342 H   0  0  0  0  0  0  0  0  0  0  0  0
    3.0138   -1.0538   -0.7644 H   0  0  0  0  0  0  0  0  0  0  0  0
    5.6303   -1.5536    1.6387 H   0  0  0  0  0  0  0  0  0  0  0  0
    4.8879   -0.3079    2.5746 H   0  0  0  0  0  0  0  0  0  0  0  0
    5.6267   -2.1295    4.0143 H   0  0  0  0  0  0  0  0  0  0  0  0
    3.9076   -1.9911    4.0914 H   0  0  0  0  0  0  0  0  0  0  0  0
    5.6328   -4.0687    2.7902 H   0  0  0  0  0  0  0  0  0  0  0  0
    4.6275   -3.8250    0.8485 H   0  0  0  0  0  0  0  0  0  0  0  0
    2.4927   -5.3024    0.5541 H   0  0  0  0  0  0  0  0  0  0  0  0
    4.0084   -6.0646    0.9240 H   0  0  0  0  0  0  0  0  0  0  0  0
    2.0979   -5.0344    2.8354 H   0  0  0  0  0  0  0  0  0  0  0  0
    3.8050   -6.8430    4.3266 H   0  0  0  0  0  0  0  0  0  0  0  0
    4.8042   -6.4233    3.0193 H   0  0  0  0  0  0  0  0  0  0  0  0
    6.2781   -5.1322    4.7549 H   0  0  0  0  0  0  0  0  0  0  0  0
    5.1321   -5.5500    6.0178 H   0  0  0  0  0  0  0  0  0  0  0  0
    5.5467   -3.8617    5.7321 H   0  0  0  0  0  0  0  0  0  0  0  0
    2.3103   -3.5887    4.4346 H   0  0  0  0  0  0  0  0  0  0  0  0
    2.7305   -6.1579    6.0009 H   0  0  0  0  0  0  0  0  0  0  0  0
   -1.0885   -7.9791    3.2901 H   0  0  0  0  0  0  0  0  0  0  0  0
   -1.2732   -6.2583    3.4440 H   0  0  0  0  0  0  0  0  0  0  0  0
   -1.3464   -7.2739    4.8656 H   0  0  0  0  0  0  0  0  0  0  0  0
    2.3404   -8.0096    5.1852 H   0  0  0  0  0  0  0  0  0  0  0  0
    1.2922  -11.2574    4.0339 H   0  0  0  0  0  0  0  0  0  0  0  0
   -0.3939  -10.7961    3.7193 H   0  0  0  0  0  0  0  0  0  0  0  0
    1.6088  -10.2529    1.8711 H   0  0  0  0  0  0  0  0  0  0  0  0
    0.1727   -9.3010    2.0653 H   0  0  0  0  0  0  0  0  0  0  0  0
    3.2749   -9.7974    2.9800 H   0  0  0  0  0  0  0  0  0  0  0  0
    0.3926   -7.6483    1.4191 H   0  0  0  0  0  0  0  0  0  0  0  0
    2.1078   -2.8808    2.1882 H   0  0  0  0  0  0  0  0  0  0  0  0
    2.3028   -3.0127    0.4679 H   0  0  0  0  0  0  0  0  0  0  0  0
  1  2  1  0
  1 29  1  0
  1 30  1  0
  1 31  1  0
  2 28  1  0
  2  3  1  0
  2  4  1  0
  3 32  1  0
  3 33  1  0
  3 34  1  0
  4  5  1  0
  4 35  1  0
  4 36  1  0
  5  6  1  0
  5 37  1  0
  5 38  1  0
  6 11  1  0
  6  7  1  0
  6 39  1  6
  7  8  1  0
  7 28  1  0
  7 40  1  6
  8  9  1  0
  8 41  1  0
  8 42  1  0
  9 26  1  0
  9 10  1  0
  9 43  1  1
 10 11  1  0
 10 44  1  0
 10 45  1  0
 11 12  1  1
 11 13  1  0
 12 46  1  0
 12 47  1  0
 12 48  1  0
 13 14  2  3
 13 49  1  0
 14 15  1  0
 14 50  1  0
 15 16  2  0
 15 17  1  0
 17 26  1  0
 17 18  1  6
 17 19  1  0
 18 51  1  0
 18 52  1  0
 18 53  1  0
 19 24  1  0
 19 20  1  0
 19 54  1  1
 20 21  2  0
 20 22  1  0
 22 23  1  0
 22 55  1  0
 22 56  1  0
 23 24  1  0
 23 57  1  0
 23 58  1  0
 24 25  1  1
 24 26  1  0
 25 59  1  0
 26 27  1  6
 27 60  1  0
 28 61  1  0
 28 62  1  0
M  END
>  <i_m_ct_stereo_status>  (194) 
1

>  <s_m_source_file>  (194) 
/var/tmp/pbs.5076255.sched01/tmpi2d1958y/88otlks1nw.sdf

>  <i_m_source_file_index>  (194) 
5

>  <i_lp_mmshare_version>  (194) 
48012

>  <i_f3d_flags>  (194) 
0

>  <s_epik_input>  (194) 
W0NIMl0xW0NIMl1DKFtDSDNdKShbQ0gzXSlbQ0gyXVtDQEBIXShbQ0BASF0xW0NAXTIzW0NIM10pW0NIMl1bQ0BIXShbQ0gyXTIpW0NAXTQoW09IXSlbQ0BdKFtDSDNdKShDKD1PKS9bQ0hdPVtDSF1cMylbQ0BASF01W0NAQF00KFtPSF0pW0NIMl1bQ0gyXUM1PU8=

>  <s_epik_cmdline>  (194) 
J2VwaWtfcHl0aG9uJywgJy1waHQnLCAnMi4wJywgJy1waCcsICc3LjAnLCAnLXRuJywgJzgnLCAnLW1hJywgJzIwMCcsICctaW1hZScsICc8aW5maWxlLm1hZT4nLCAnLW9tYWUnLCAnPG91dGZpbGUubWFlPic=

>  <r_lp_tautomer_probability>  (194) 
1

>  <r_epik_Ionization_Penalty>  (194) 
1.4531e-07

>  <r_epik_Ionization_Penalty_Charging>  (194) 
0

>  <r_epik_Ionization_Penalty_Neutral>  (194) 
1.4531e-07

>  <r_epik_State_Penalty>  (194) 
-0

>  <r_epik_Charging_Adjusted_Penalty>  (194) 
0

>  <i_epik_Tot_Q>  (194) 
0

>  <i_epik_Tot_abs_Q>  (194) 
0

>  <s_lp_Force_Field>  (194) 
OPLS3e

>  <r_lp_Energy>  (194) 
107.423

>  <b_lp_Chiralities_Consistent>  (194) 
1

>  <s_lp_Variant>  (194) 
59:0-2

>  <s_i_glide_gridfile>  (194) 
pfpi4k_grid

>  <i_i_glide_lignum>  (194) 
5

>  <i_i_glide_rotatable_bonds>  (194) 
2

>  <r_i_docking_score>  (194) 
-2.51406

>  <r_i_glide_ligand_efficiency>  (194) 
-0.0897877

>  <r_i_glide_ligand_efficiency_sa>  (194) 
-0.272648

>  <r_i_glide_ligand_efficiency_ln>  (194) 
-0.580318

>  <r_i_glide_gscore>  (194) 
-2.51406

>  <r_i_glide_lipo>  (194) 
-0.225963

>  <r_i_glide_hbond>  (194) 
0

>  <r_i_glide_metal>  (194) 
-0

>  <r_i_glide_rewards>  (194) 
-0.773698

>  <r_i_glide_evdw>  (194) 
-21.3584

>  <r_i_glide_ecoul>  (194) 
-2.62494

>  <r_i_glide_erotb>  (194) 
0

>  <r_i_glide_esite>  (194) 
-0.0527335

>  <r_i_glide_emodel>  (194) 
-27.0255

>  <r_i_glide_energy>  (194) 
-23.9834

>  <r_i_glide_einternal>  (194) 
1.56187

>  <r_i_glide_intrahb_reward>  (194) 
-0

>  <i_i_glide_confnum>  (194) 
2

>  <i_i_glide_posenum>  (194) 
17

>  <r_i_glide_eff_state_penalty>  (194) 
0

>  <ligand_id>  (194) 
59

>  <original_smiles>  (194) 
CC1(C)CCC2C(CC3CC2(C)C=CC(=O)C2(C)C4C(=O)CCC4(O)C32O)C1

>  <smiles>  (194) 
[H]OC12C([H])([H])C([H])([H])C(=O)C1([H])C1(C([H])([H])[H])C(=O)C([H])=C([H])C3(C([H])([H])[H])C([H])([H])C([H])(C([H])([H])C4([H])C([H])([H])C(C([H])([H])[H])(C([H])([H])[H])C([H])([H])C([H])([H])C43[H])C21O[H]

$$$$
60:0:0
     RDKit          3D

 53 57  0  0  1  0  0  0  0  0999 V2000
    2.8250   -4.3827    4.7049 C   0  0  0  0  0  0  0  0  0  0  0  0
    4.2987   -4.2904    4.2592 C   0  0  2  0  0  0  0  0  0  0  0  0
    4.7315   -2.8222    4.0263 C   0  0  0  0  0  0  0  0  0  0  0  0
    4.3420   -2.2662    2.6440 C   0  0  0  0  0  0  0  0  0  0  0  0
    4.9427   -3.1272    1.5045 C   0  0  1  0  0  0  0  0  0  0  0  0
    4.4064   -4.5745    1.6324 C   0  0  2  0  0  0  0  0  0  0  0  0
    2.9380   -4.6448    1.1697 C   0  0  0  0  0  0  0  0  0  0  0  0
    2.7736   -4.1034   -0.2540 C   0  0  0  0  0  0  0  0  0  0  0  0
    3.3308   -2.6825   -0.4730 C   0  0  2  0  0  0  0  0  0  0  0  0
    3.2087   -2.2027   -1.9444 C   0  0  2  0  0  0  0  0  0  0  0  0
    2.4651   -3.0097   -3.0198 C   0  0  0  0  0  0  0  0  0  0  0  0
    3.7230   -3.4638   -3.5700 O   0  0  0  0  0  0  0  0  0  0  0  0
    4.3878   -2.3620   -2.9158 C   0  0  1  0  0  0  0  0  0  0  0  0
    4.5944   -1.2691   -3.7801 O   0  0  0  0  0  0  0  0  0  0  0  0
    5.7539   -2.7760   -2.3690 C   0  0  0  0  0  0  0  0  0  0  0  0
    5.7253   -3.3346   -0.9332 C   0  0  0  0  0  0  0  0  0  0  0  0
    4.7924   -2.5522    0.0470 C   0  0  2  0  0  0  0  0  0  0  0  0
    5.2216   -1.0607    0.0509 C   0  0  0  0  0  0  0  0  0  0  0  0
    4.6357   -5.1904    3.0422 C   0  0  1  0  0  0  0  0  0  0  0  0
    6.0835   -5.6859    3.2613 C   0  0  0  0  0  0  0  0  0  0  0  0
    6.2529   -5.8361    4.7738 C   0  0  0  0  0  0  0  0  0  0  0  0
    5.1984   -4.9016    5.3425 C   0  0  0  0  0  0  0  0  0  0  0  0
    5.0828   -4.6718    6.5374 O   0  0  0  0  0  0  0  0  0  0  0  0
    2.1453   -3.9679    3.9681 H   0  0  0  0  0  0  0  0  0  0  0  0
    2.6554   -3.8361    5.6303 H   0  0  0  0  0  0  0  0  0  0  0  0
    2.5301   -5.4147    4.8843 H   0  0  0  0  0  0  0  0  0  0  0  0
    4.3082   -2.1818    4.8012 H   0  0  0  0  0  0  0  0  0  0  0  0
    5.8139   -2.7232    4.1323 H   0  0  0  0  0  0  0  0  0  0  0  0
    3.2556   -2.1979    2.5609 H   0  0  0  0  0  0  0  0  0  0  0  0
    4.7095   -1.2403    2.6071 H   0  0  0  0  0  0  0  0  0  0  0  0
    6.0136   -3.1557    1.6990 H   0  0  0  0  0  0  0  0  0  0  0  0
    4.9672   -5.2137    0.9517 H   0  0  0  0  0  0  0  0  0  0  0  0
    2.5879   -5.6785    1.2073 H   0  0  0  0  0  0  0  0  0  0  0  0
    2.2830   -4.0725    1.8219 H   0  0  0  0  0  0  0  0  0  0  0  0
    3.2733   -4.7844   -0.9294 H   0  0  0  0  0  0  0  0  0  0  0  0
    1.7165   -4.1329   -0.5063 H   0  0  0  0  0  0  0  0  0  0  0  0
    2.7095   -2.0273    0.1388 H   0  0  0  0  0  0  0  0  0  0  0  0
    2.8780   -1.1679   -1.9862 H   0  0  0  0  0  0  0  0  0  0  0  0
    1.8182   -3.8069   -2.6664 H   0  0  0  0  0  0  0  0  0  0  0  0
    1.9220   -2.3800   -3.7296 H   0  0  0  0  0  0  0  0  0  0  0  0
    3.7432   -1.0248   -4.1086 H   0  0  0  0  0  0  0  0  0  0  0  0
    6.2556   -3.4686   -3.0481 H   0  0  0  0  0  0  0  0  0  0  0  0
    6.4084   -1.9054   -2.3202 H   0  0  0  0  0  0  0  0  0  0  0  0
    5.4021   -4.3706   -1.0252 H   0  0  0  0  0  0  0  0  0  0  0  0
    6.7464   -3.3912   -0.5432 H   0  0  0  0  0  0  0  0  0  0  0  0
    5.2473   -0.6125   -0.9432 H   0  0  0  0  0  0  0  0  0  0  0  0
    6.2138   -0.9331    0.4893 H   0  0  0  0  0  0  0  0  0  0  0  0
    4.5235   -0.4386    0.6117 H   0  0  0  0  0  0  0  0  0  0  0  0
    4.0140   -6.0857    3.1139 H   0  0  0  0  0  0  0  0  0  0  0  0
    6.2778   -6.6242    2.7393 H   0  0  0  0  0  0  0  0  0  0  0  0
    6.8031   -4.9586    2.8856 H   0  0  0  0  0  0  0  0  0  0  0  0
    6.0310   -6.8538    5.0969 H   0  0  0  0  0  0  0  0  0  0  0  0
    7.2540   -5.5728    5.1217 H   0  0  0  0  0  0  0  0  0  0  0  0
  2  1  1  1
  1 24  1  0
  1 25  1  0
  1 26  1  0
  2 19  1  0
  2 22  1  0
  2  3  1  0
  3  4  1  0
  3 27  1  0
  3 28  1  0
  4  5  1  0
  4 29  1  0
  4 30  1  0
  5 17  1  0
  5  6  1  0
  5 31  1  1
  6  7  1  0
  6 19  1  0
  6 32  1  6
  7  8  1  0
  7 33  1  0
  7 34  1  0
  8  9  1  0
  8 35  1  0
  8 36  1  0
  9 17  1  0
  9 10  1  0
  9 37  1  1
 10 13  1  0
 10 11  1  0
 10 38  1  1
 11 12  1  0
 11 39  1  0
 11 40  1  0
 12 13  1  0
 13 14  1  6
 13 15  1  0
 14 41  1  0
 15 16  1  0
 15 42  1  0
 15 43  1  0
 16 17  1  0
 16 44  1  0
 16 45  1  0
 17 18  1  1
 18 46  1  0
 18 47  1  0
 18 48  1  0
 19 20  1  0
 19 49  1  6
 20 21  1  0
 20 50  1  0
 20 51  1  0
 21 22  1  0
 21 52  1  0
 21 53  1  0
 22 23  2  0
M  END
>  <i_m_ct_stereo_status>  (195) 
1

>  <s_m_source_file>  (195) 
/var/tmp/pbs.5076255.sched01/tmpi2d1958y/88otlks1nw.sdf

>  <i_m_source_file_index>  (195) 
6

>  <i_lp_mmshare_version>  (195) 
48012

>  <i_f3d_flags>  (195) 
0

>  <s_epik_input>  (195) 
Tz1DMVtDSDJdW0NIMl1bQ0BASF0oW0NAQF0xMltDSDNdKVtDQEBIXTNbQ0BIXShbQ0gyXVtDSDJdMilbQ0BdNChbQ0gzXSlbQ0BIXShbQ0gyXVtDSDJdMylbQ0BIXTVbQ0BdKFtPSF0pKE9bQ0gyXTUpW0NIMl1bQ0gyXTQ=

>  <s_epik_cmdline>  (195) 
J2VwaWtfcHl0aG9uJywgJy1waHQnLCAnMi4wJywgJy1waCcsICc3LjAnLCAnLXRuJywgJzgnLCAnLW1hJywgJzIwMCcsICctaW1hZScsICc8aW5maWxlLm1hZT4nLCAnLW9tYWUnLCAnPG91dGZpbGUubWFlPic=

>  <r_lp_tautomer_probability>  (195) 
1

>  <r_epik_Ionization_Penalty>  (195) 
3.71044e-08

>  <r_epik_Ionization_Penalty_Charging>  (195) 
0

>  <r_epik_Ionization_Penalty_Neutral>  (195) 
3.71044e-08

>  <r_epik_State_Penalty>  (195) 
-0

>  <r_epik_Charging_Adjusted_Penalty>  (195) 
0

>  <i_epik_Tot_Q>  (195) 
0

>  <i_epik_Tot_abs_Q>  (195) 
0

>  <s_lp_Force_Field>  (195) 
OPLS3e

>  <r_lp_Energy>  (195) 
45.9182

>  <b_lp_Chiralities_Consistent>  (195) 
1

>  <s_lp_Variant>  (195) 
60:0-1

>  <s_i_glide_gridfile>  (195) 
pfpi4k_grid

>  <i_i_glide_lignum>  (195) 
6

>  <i_i_glide_rotatable_bonds>  (195) 
1

>  <r_i_docking_score>  (195) 
-3.37619

>  <r_i_glide_ligand_efficiency>  (195) 
-0.146791

>  <r_i_glide_ligand_efficiency_sa>  (195) 
-0.417453

>  <r_i_glide_ligand_efficiency_ln>  (195) 
-0.816393

>  <r_i_glide_gscore>  (195) 
-3.37619

>  <r_i_glide_lipo>  (195) 
-0.439415

>  <r_i_glide_hbond>  (195) 
0

>  <r_i_glide_metal>  (195) 
-0

>  <r_i_glide_rewards>  (195) 
-1.41794

>  <r_i_glide_evdw>  (195) 
-23.4976

>  <r_i_glide_ecoul>  (195) 
-2.29304

>  <r_i_glide_erotb>  (195) 
0

>  <r_i_glide_esite>  (195) 
0

>  <r_i_glide_emodel>  (195) 
-31.2858

>  <r_i_glide_energy>  (195) 
-25.7906

>  <r_i_glide_einternal>  (195) 
0.213584

>  <r_i_glide_intrahb_reward>  (195) 
-0

>  <i_i_glide_confnum>  (195) 
2

>  <i_i_glide_posenum>  (195) 
14

>  <r_i_glide_eff_state_penalty>  (195) 
0

>  <ligand_id>  (195) 
60

>  <original_smiles>  (195) 
CC12CCC3C(CCC4C5COC5(O)CCC34C)C1CCC2=O

>  <smiles>  (195) 
[H]OC12OC([H])([H])C1([H])C1([H])C([H])([H])C([H])([H])C3([H])C4([H])C([H])([H])C([H])([H])C(=O)C4(C([H])([H])[H])C([H])([H])C([H])([H])C3([H])C1(C([H])([H])[H])C([H])([H])C2([H])[H]

$$$$
60:0:1
     RDKit          3D

 53 57  0  0  1  0  0  0  0  0999 V2000
    0.2367   -7.1368    2.8725 C   0  0  0  0  0  0  0  0  0  0  0  0
    1.6937   -7.6181    3.0279 C   0  0  2  0  0  0  0  0  0  0  0  0
    2.4649   -6.7632    4.0651 C   0  0  0  0  0  0  0  0  0  0  0  0
    3.0160   -5.4417    3.5019 C   0  0  0  0  0  0  0  0  0  0  0  0
    3.9627   -5.6962    2.2985 C   0  0  1  0  0  0  0  0  0  0  0  0
    3.1709   -6.4256    1.1843 C   0  0  2  0  0  0  0  0  0  0  0  0
    2.2254   -5.4385    0.4804 C   0  0  0  0  0  0  0  0  0  0  0  0
    2.9727   -4.2217   -0.0860 C   0  0  0  0  0  0  0  0  0  0  0  0
    3.8326   -3.4714    0.9638 C   0  0  2  0  0  0  0  0  0  0  0  0
    4.6382   -2.2835    0.3664 C   0  0  2  0  0  0  0  0  0  0  0  0
    4.4582   -1.8378   -1.0888 C   0  0  0  0  0  0  0  0  0  0  0  0
    5.6640   -2.5434   -1.4658 O   0  0  0  0  0  0  0  0  0  0  0  0
    6.0969   -2.5038   -0.0840 C   0  0  1  0  0  0  0  0  0  0  0  0
    6.9852   -1.4297    0.1602 O   0  0  0  0  0  0  0  0  0  0  0  0
    6.8346   -3.7900    0.3155 C   0  0  0  0  0  0  0  0  0  0  0  0
    5.8979   -4.9158    0.7925 C   0  0  0  0  0  0  0  0  0  0  0  0
    4.7565   -4.4483    1.7551 C   0  0  2  0  0  0  0  0  0  0  0  0
    5.3946   -3.7082    2.9610 C   0  0  0  0  0  0  0  0  0  0  0  0
    2.4572   -7.7167    1.6789 C   0  0  1  0  0  0  0  0  0  0  0  0
    3.4125   -8.9211    1.8254 C   0  0  0  0  0  0  0  0  0  0  0  0
    2.6801   -9.9330    2.7062 C   0  0  0  0  0  0  0  0  0  0  0  0
    1.6964   -9.0813    3.4858 C   0  0  0  0  0  0  0  0  0  0  0  0
    0.9836   -9.5200    4.3858 O   0  0  0  0  0  0  0  0  0  0  0  0
    0.1817   -6.1043    2.5468 H   0  0  0  0  0  0  0  0  0  0  0  0
   -0.3045   -7.1967    3.8165 H   0  0  0  0  0  0  0  0  0  0  0  0
   -0.3103   -7.7473    2.1540 H   0  0  0  0  0  0  0  0  0  0  0  0
    1.8244   -6.5498    4.9222 H   0  0  0  0  0  0  0  0  0  0  0  0
    3.3075   -7.3291    4.4687 H   0  0  0  0  0  0  0  0  0  0  0  0
    2.1981   -4.7732    3.2325 H   0  0  0  0  0  0  0  0  0  0  0  0
    3.5391   -4.9512    4.3211 H   0  0  0  0  0  0  0  0  0  0  0  0
    4.7189   -6.3885    2.6673 H   0  0  0  0  0  0  0  0  0  0  0  0
    3.8746   -6.7629    0.4231 H   0  0  0  0  0  0  0  0  0  0  0  0
    1.7022   -5.9439   -0.3323 H   0  0  0  0  0  0  0  0  0  0  0  0
    1.4598   -5.0807    1.1594 H   0  0  0  0  0  0  0  0  0  0  0  0
    3.5910   -4.5434   -0.9226 H   0  0  0  0  0  0  0  0  0  0  0  0
    2.2286   -3.5447   -0.5035 H   0  0  0  0  0  0  0  0  0  0  0  0
    3.1193   -3.0576    1.6767 H   0  0  0  0  0  0  0  0  0  0  0  0
    4.5970   -1.4128    1.0263 H   0  0  0  0  0  0  0  0  0  0  0  0
    3.5690   -2.1941   -1.6061 H   0  0  0  0  0  0  0  0  0  0  0  0
    4.5611   -0.7591   -1.2187 H   0  0  0  0  0  0  0  0  0  0  0  0
    7.1112   -1.3678    1.0950 H   0  0  0  0  0  0  0  0  0  0  0  0
    7.4663   -4.1358   -0.5016 H   0  0  0  0  0  0  0  0  0  0  0  0
    7.5263   -3.5854    1.1368 H   0  0  0  0  0  0  0  0  0  0  0  0
    5.4756   -5.3720   -0.1033 H   0  0  0  0  0  0  0  0  0  0  0  0
    6.4926   -5.7012    1.2585 H   0  0  0  0  0  0  0  0  0  0  0  0
    6.0511   -2.8927    2.6659 H   0  0  0  0  0  0  0  0  0  0  0  0
    5.9774   -4.3982    3.5713 H   0  0  0  0  0  0  0  0  0  0  0  0
    4.6445   -3.2440    3.5988 H   0  0  0  0  0  0  0  0  0  0  0  0
    1.7329   -8.0078    0.9148 H   0  0  0  0  0  0  0  0  0  0  0  0
    3.6744   -9.3518    0.8570 H   0  0  0  0  0  0  0  0  0  0  0  0
    4.3418   -8.6314    2.3185 H   0  0  0  0  0  0  0  0  0  0  0  0
    2.1271  -10.6533    2.1024 H   0  0  0  0  0  0  0  0  0  0  0  0
    3.3532  -10.4827    3.3655 H   0  0  0  0  0  0  0  0  0  0  0  0
  2  1  1  6
  1 24  1  0
  1 25  1  0
  1 26  1  0
  2 19  1  0
  2 22  1  0
  2  3  1  0
  3  4  1  0
  3 27  1  0
  3 28  1  0
  4  5  1  0
  4 29  1  0
  4 30  1  0
  5 17  1  0
  5  6  1  0
  5 31  1  1
  6  7  1  0
  6 19  1  0
  6 32  1  6
  7  8  1  0
  7 33  1  0
  7 34  1  0
  8  9  1  0
  8 35  1  0
  8 36  1  0
  9 17  1  0
  9 10  1  0
  9 37  1  1
 10 13  1  0
 10 11  1  0
 10 38  1  1
 11 12  1  0
 11 39  1  0
 11 40  1  0
 12 13  1  0
 13 14  1  6
 13 15  1  0
 14 41  1  0
 15 16  1  0
 15 42  1  0
 15 43  1  0
 16 17  1  0
 16 44  1  0
 16 45  1  0
 17 18  1  1
 18 46  1  0
 18 47  1  0
 18 48  1  0
 19 20  1  0
 19 49  1  6
 20 21  1  0
 20 50  1  0
 20 51  1  0
 21 22  1  0
 21 52  1  0
 21 53  1  0
 22 23  2  0
M  END
>  <i_m_ct_stereo_status>  (196) 
1

>  <s_m_source_file>  (196) 
/var/tmp/pbs.5076255.sched01/tmpi2d1958y/88otlks1nw.sdf

>  <i_m_source_file_index>  (196) 
6

>  <i_lp_mmshare_version>  (196) 
48012

>  <i_f3d_flags>  (196) 
0

>  <s_epik_input>  (196) 
Tz1DMVtDSDJdW0NIMl1bQ0BASF0oW0NAQF0xMltDSDNdKVtDQEBIXTNbQ0BIXShbQ0gyXVtDSDJdMilbQ0BdNChbQ0gzXSlbQ0BIXShbQ0gyXVtDSDJdMylbQ0BIXTVbQ0BdKFtPSF0pKE9bQ0gyXTUpW0NIMl1bQ0gyXTQ=

>  <s_epik_cmdline>  (196) 
J2VwaWtfcHl0aG9uJywgJy1waHQnLCAnMi4wJywgJy1waCcsICc3LjAnLCAnLXRuJywgJzgnLCAnLW1hJywgJzIwMCcsICctaW1hZScsICc8aW5maWxlLm1hZT4nLCAnLW9tYWUnLCAnPG91dGZpbGUubWFlPic=

>  <r_lp_tautomer_probability>  (196) 
1

>  <r_epik_Ionization_Penalty>  (196) 
3.71044e-08

>  <r_epik_Ionization_Penalty_Charging>  (196) 
0

>  <r_epik_Ionization_Penalty_Neutral>  (196) 
3.71044e-08

>  <r_epik_State_Penalty>  (196) 
-0

>  <r_epik_Charging_Adjusted_Penalty>  (196) 
0

>  <i_epik_Tot_Q>  (196) 
0

>  <i_epik_Tot_abs_Q>  (196) 
0

>  <s_lp_Force_Field>  (196) 
OPLS3e

>  <r_lp_Energy>  (196) 
45.9182

>  <b_lp_Chiralities_Consistent>  (196) 
1

>  <s_lp_Variant>  (196) 
60:0-1

>  <s_i_glide_gridfile>  (196) 
pfpi4k_grid

>  <i_i_glide_lignum>  (196) 
6

>  <i_i_glide_rotatable_bonds>  (196) 
1

>  <r_i_docking_score>  (196) 
-3.06617

>  <r_i_glide_ligand_efficiency>  (196) 
-0.133312

>  <r_i_glide_ligand_efficiency_sa>  (196) 
-0.37912

>  <r_i_glide_ligand_efficiency_ln>  (196) 
-0.741427

>  <r_i_glide_gscore>  (196) 
-3.06617

>  <r_i_glide_lipo>  (196) 
-0.31642

>  <r_i_glide_hbond>  (196) 
0

>  <r_i_glide_metal>  (196) 
-0

>  <r_i_glide_rewards>  (196) 
-1.24702

>  <r_i_glide_evdw>  (196) 
-24.9953

>  <r_i_glide_ecoul>  (196) 
-1.61234

>  <r_i_glide_erotb>  (196) 
0

>  <r_i_glide_esite>  (196) 
-0.0111077

>  <r_i_glide_emodel>  (196) 
-31.2687

>  <r_i_glide_energy>  (196) 
-26.6076

>  <r_i_glide_einternal>  (196) 
0.905505

>  <r_i_glide_intrahb_reward>  (196) 
-0

>  <i_i_glide_confnum>  (196) 
1

>  <i_i_glide_posenum>  (196) 
7

>  <r_i_glide_eff_state_penalty>  (196) 
0

>  <ligand_id>  (196) 
60

>  <original_smiles>  (196) 
CC12CCC3C(CCC4C5COC5(O)CCC34C)C1CCC2=O

>  <smiles>  (196) 
[H]OC12OC([H])([H])C1([H])C1([H])C([H])([H])C([H])([H])C3([H])C4([H])C([H])([H])C([H])([H])C(=O)C4(C([H])([H])[H])C([H])([H])C([H])([H])C3([H])C1(C([H])([H])[H])C([H])([H])C2([H])[H]

$$$$
60:0:2
     RDKit          3D

 53 57  0  0  1  0  0  0  0  0999 V2000
    3.6157   -1.4746   -2.2647 C   0  0  0  0  0  0  0  0  0  0  0  0
    4.5309   -2.3770   -1.4119 C   0  0  2  0  0  0  0  0  0  0  0  0
    3.7354   -3.5251   -0.7415 C   0  0  0  0  0  0  0  0  0  0  0  0
    3.0279   -3.1237    0.5655 C   0  0  0  0  0  0  0  0  0  0  0  0
    4.0382   -2.5754    1.6073 C   0  0  1  0  0  0  0  0  0  0  0  0
    4.7430   -1.3304    1.0146 C   0  0  2  0  0  0  0  0  0  0  0  0
    3.7863   -0.1230    1.0285 C   0  0  0  0  0  0  0  0  0  0  0  0
    3.2442    0.1672    2.4307 C   0  0  0  0  0  0  0  0  0  0  0  0
    2.5651   -1.0548    3.1023 C   0  0  2  0  0  0  0  0  0  0  0  0
    2.0802   -0.7659    4.5499 C   0  0  2  0  0  0  0  0  0  0  0  0
    2.1503    0.6398    5.1578 C   0  0  0  0  0  0  0  0  0  0  0  0
    3.3582    0.2869    5.8747 O   0  0  0  0  0  0  0  0  0  0  0  0
    3.0019   -1.1092    5.7402 C   0  0  1  0  0  0  0  0  0  0  0  0
    2.3430   -1.6086    6.8861 O   0  0  0  0  0  0  0  0  0  0  0  0
    4.2369   -1.9877    5.5256 C   0  0  0  0  0  0  0  0  0  0  0  0
    4.6571   -2.1079    4.0487 C   0  0  0  0  0  0  0  0  0  0  0  0
    3.4734   -2.3208    3.0519 C   0  0  2  0  0  0  0  0  0  0  0  0
    2.6684   -3.5702    3.5002 C   0  0  0  0  0  0  0  0  0  0  0  0
    5.3863   -1.5924   -0.3796 C   0  0  1  0  0  0  0  0  0  0  0  0
    6.7332   -2.3431   -0.2949 C   0  0  0  0  0  0  0  0  0  0  0  0
    6.9943   -2.8888   -1.6960 C   0  0  0  0  0  0  0  0  0  0  0  0
    5.6109   -2.9843   -2.3096 C   0  0  0  0  0  0  0  0  0  0  0  0
    5.3926   -3.4623   -3.4200 O   0  0  0  0  0  0  0  0  0  0  0  0
    2.8351   -1.0141   -1.6713 H   0  0  0  0  0  0  0  0  0  0  0  0
    3.1118   -2.0373   -3.0500 H   0  0  0  0  0  0  0  0  0  0  0  0
    4.1723   -0.6729   -2.7450 H   0  0  0  0  0  0  0  0  0  0  0  0
    2.9928   -3.9152   -1.4407 H   0  0  0  0  0  0  0  0  0  0  0  0
    4.3961   -4.3678   -0.5211 H   0  0  0  0  0  0  0  0  0  0  0  0
    2.2401   -2.3985    0.3574 H   0  0  0  0  0  0  0  0  0  0  0  0
    2.5257   -4.0186    0.9312 H   0  0  0  0  0  0  0  0  0  0  0  0
    4.7909   -3.3550    1.7157 H   0  0  0  0  0  0  0  0  0  0  0  0
    5.5773   -1.0594    1.6607 H   0  0  0  0  0  0  0  0  0  0  0  0
    4.2981    0.7631    0.6494 H   0  0  0  0  0  0  0  0  0  0  0  0
    2.9341   -0.2830    0.3721 H   0  0  0  0  0  0  0  0  0  0  0  0
    4.0547    0.5517    3.0495 H   0  0  0  0  0  0  0  0  0  0  0  0
    2.5249    0.9801    2.3311 H   0  0  0  0  0  0  0  0  0  0  0  0
    1.6845   -1.2666    2.4963 H   0  0  0  0  0  0  0  0  0  0  0  0
    1.0914   -1.1927    4.7336 H   0  0  0  0  0  0  0  0  0  0  0  0
    2.2895    1.4673    4.4659 H   0  0  0  0  0  0  0  0  0  0  0  0
    1.3202    0.8493    5.8348 H   0  0  0  0  0  0  0  0  0  0  0  0
    2.9419   -1.4876    7.6084 H   0  0  0  0  0  0  0  0  0  0  0  0
    5.0667   -1.6277    6.1385 H   0  0  0  0  0  0  0  0  0  0  0  0
    4.0383   -3.0015    5.8812 H   0  0  0  0  0  0  0  0  0  0  0  0
    5.1939   -1.1906    3.8132 H   0  0  0  0  0  0  0  0  0  0  0  0
    5.3971   -2.9058    3.9556 H   0  0  0  0  0  0  0  0  0  0  0  0
    2.3361   -3.5247    4.5370 H   0  0  0  0  0  0  0  0  0  0  0  0
    3.2650   -4.4785    3.3955 H   0  0  0  0  0  0  0  0  0  0  0  0
    1.7546   -3.6948    2.9187 H   0  0  0  0  0  0  0  0  0  0  0  0
    5.6130   -0.6201   -0.8205 H   0  0  0  0  0  0  0  0  0  0  0  0
    7.5400   -1.6958    0.0531 H   0  0  0  0  0  0  0  0  0  0  0  0
    6.6669   -3.1818    0.4022 H   0  0  0  0  0  0  0  0  0  0  0  0
    7.6009   -2.2204   -2.2954 H   0  0  0  0  0  0  0  0  0  0  0  0
    7.5083   -3.8469   -1.6740 H   0  0  0  0  0  0  0  0  0  0  0  0
  2  1  1  6
  1 24  1  0
  1 25  1  0
  1 26  1  0
  2 19  1  0
  2 22  1  0
  2  3  1  0
  3  4  1  0
  3 27  1  0
  3 28  1  0
  4  5  1  0
  4 29  1  0
  4 30  1  0
  5 17  1  0
  5  6  1  0
  5 31  1  1
  6  7  1  0
  6 19  1  0
  6 32  1  1
  7  8  1  0
  7 33  1  0
  7 34  1  0
  8  9  1  0
  8 35  1  0
  8 36  1  0
  9 17  1  0
  9 10  1  0
  9 37  1  6
 10 13  1  0
 10 11  1  0
 10 38  1  1
 11 12  1  0
 11 39  1  0
 11 40  1  0
 12 13  1  0
 13 14  1  1
 13 15  1  0
 14 41  1  0
 15 16  1  0
 15 42  1  0
 15 43  1  0
 16 17  1  0
 16 44  1  0
 16 45  1  0
 17 18  1  1
 18 46  1  0
 18 47  1  0
 18 48  1  0
 19 20  1  0
 19 49  1  6
 20 21  1  0
 20 50  1  0
 20 51  1  0
 21 22  1  0
 21 52  1  0
 21 53  1  0
 22 23  2  0
M  END
>  <i_m_ct_stereo_status>  (197) 
1

>  <s_m_source_file>  (197) 
/var/tmp/pbs.5076255.sched01/tmpi2d1958y/88otlks1nw.sdf

>  <i_m_source_file_index>  (197) 
6

>  <i_lp_mmshare_version>  (197) 
48012

>  <i_f3d_flags>  (197) 
0

>  <s_epik_input>  (197) 
Tz1DMVtDSDJdW0NIMl1bQ0BASF0oW0NAQF0xMltDSDNdKVtDQEBIXTNbQ0BIXShbQ0gyXVtDSDJdMilbQ0BdNChbQ0gzXSlbQ0BIXShbQ0gyXVtDSDJdMylbQ0BIXTVbQ0BdKFtPSF0pKE9bQ0gyXTUpW0NIMl1bQ0gyXTQ=

>  <s_epik_cmdline>  (197) 
J2VwaWtfcHl0aG9uJywgJy1waHQnLCAnMi4wJywgJy1waCcsICc3LjAnLCAnLXRuJywgJzgnLCAnLW1hJywgJzIwMCcsICctaW1hZScsICc8aW5maWxlLm1hZT4nLCAnLW9tYWUnLCAnPG91dGZpbGUubWFlPic=

>  <r_lp_tautomer_probability>  (197) 
1

>  <r_epik_Ionization_Penalty>  (197) 
3.71044e-08

>  <r_epik_Ionization_Penalty_Charging>  (197) 
0

>  <r_epik_Ionization_Penalty_Neutral>  (197) 
3.71044e-08

>  <r_epik_State_Penalty>  (197) 
-0

>  <r_epik_Charging_Adjusted_Penalty>  (197) 
0

>  <i_epik_Tot_Q>  (197) 
0

>  <i_epik_Tot_abs_Q>  (197) 
0

>  <s_lp_Force_Field>  (197) 
OPLS3e

>  <r_lp_Energy>  (197) 
45.9182

>  <b_lp_Chiralities_Consistent>  (197) 
1

>  <s_lp_Variant>  (197) 
60:0-1

>  <s_i_glide_gridfile>  (197) 
pfpi4k_grid

>  <i_i_glide_lignum>  (197) 
6

>  <i_i_glide_rotatable_bonds>  (197) 
1

>  <r_i_docking_score>  (197) 
-3.04202

>  <r_i_glide_ligand_efficiency>  (197) 
-0.132262

>  <r_i_glide_ligand_efficiency_sa>  (197) 
-0.376135

>  <r_i_glide_ligand_efficiency_ln>  (197) 
-0.735588

>  <r_i_glide_gscore>  (197) 
-3.04202

>  <r_i_glide_lipo>  (197) 
-0.15123

>  <r_i_glide_hbond>  (197) 
0

>  <r_i_glide_metal>  (197) 
-0

>  <r_i_glide_rewards>  (197) 
-1.4391

>  <r_i_glide_evdw>  (197) 
-25.3761

>  <r_i_glide_ecoul>  (197) 
-1.21924

>  <r_i_glide_erotb>  (197) 
0

>  <r_i_glide_esite>  (197) 
0

>  <r_i_glide_emodel>  (197) 
-31.2339

>  <r_i_glide_energy>  (197) 
-26.5954

>  <r_i_glide_einternal>  (197) 
0.849289

>  <r_i_glide_intrahb_reward>  (197) 
-0

>  <i_i_glide_confnum>  (197) 
2

>  <i_i_glide_posenum>  (197) 
15

>  <r_i_glide_eff_state_penalty>  (197) 
0

>  <ligand_id>  (197) 
60

>  <original_smiles>  (197) 
CC12CCC3C(CCC4C5COC5(O)CCC34C)C1CCC2=O

>  <smiles>  (197) 
[H]OC12OC([H])([H])C1([H])C1([H])C([H])([H])C([H])([H])C3([H])C4([H])C([H])([H])C([H])([H])C(=O)C4(C([H])([H])[H])C([H])([H])C([H])([H])C3([H])C1(C([H])([H])[H])C([H])([H])C2([H])[H]

$$$$
63:0:0
     RDKit          3D

 50 54  0  0  1  0  0  0  0  0999 V2000
   -1.9040    2.6650    2.8934 N   0  0  0  0  0  0  0  0  0  0  0  0
   -1.0876    1.8781    2.9214 N   0  0  0  0  0  0  0  0  0  0  0  0
   -0.1698    1.0667    3.1108 N   0  0  0  0  0  0  0  0  0  0  0  0
    0.7410    0.8479    1.9951 C   0  0  0  0  0  0  0  0  0  0  0  0
    2.0966    0.2918    2.4769 C   0  0  2  0  0  0  0  0  0  0  0  0
    3.0712    0.0941    1.2971 C   0  0  0  0  0  0  0  0  0  0  0  0
    4.3545   -0.6411    1.7543 C   0  0  0  0  0  0  0  0  0  0  0  0
    3.9925   -1.9285    2.4882 C   0  0  2  0  0  0  0  0  0  0  0  0
    3.2132   -1.5825    3.5739 O   0  0  0  0  0  0  0  0  0  0  0  0
    1.9266   -1.0485    3.1969 C   0  0  0  0  0  0  0  0  0  0  0  0
    5.1932   -2.5783    2.8565 O   0  0  0  0  0  0  0  0  0  0  0  0
    4.9099   -3.8659    3.5657 O   0  0  0  0  0  0  0  0  0  0  0  0
    4.2476   -4.7745    2.6442 C   0  0  1  0  0  0  0  0  0  0  0  0
    5.1749   -5.1433    1.4416 C   0  0  1  0  0  0  0  0  0  0  0  0
    6.4539   -5.8484    1.9549 C   0  0  0  0  0  0  0  0  0  0  0  0
    6.0744   -7.1537    2.6919 C   0  0  2  0  0  0  0  0  0  0  0  0
    5.3399   -8.1045    1.7260 C   0  0  0  0  0  0  0  0  0  0  0  0
    4.0660   -7.4145    1.2182 C   0  0  2  0  0  0  0  0  0  0  0  0
    4.4579   -6.1230    0.4641 C   0  0  0  0  0  0  0  0  0  0  0  0
    3.1404   -7.0766    2.4165 C   0  0  0  0  0  0  0  0  0  0  0  0
    3.8837   -6.1127    3.3796 C   0  0  1  0  0  0  0  0  0  0  0  0
    5.1543   -6.8147    3.8905 C   0  0  0  0  0  0  0  0  0  0  0  0
    2.9755   -4.0425    2.1702 C   0  0  1  0  0  0  0  0  0  0  0  0
    2.0087   -4.0052    3.1946 O   0  0  0  0  0  0  0  0  0  0  0  0
    3.2948   -2.7861    1.6221 O   0  0  0  0  0  0  0  0  0  0  0  0
    0.2933    0.1542    1.2811 H   0  0  0  0  0  0  0  0  0  0  0  0
    0.9207    1.7714    1.4442 H   0  0  0  0  0  0  0  0  0  0  0  0
    2.5434    0.9947    3.1819 H   0  0  0  0  0  0  0  0  0  0  0  0
    2.6091   -0.4800    0.4860 H   0  0  0  0  0  0  0  0  0  0  0  0
    3.3297    1.0671    0.8824 H   0  0  0  0  0  0  0  0  0  0  0  0
    5.0008   -0.8392    0.8951 H   0  0  0  0  0  0  0  0  0  0  0  0
    4.9105    0.0085    2.4396 H   0  0  0  0  0  0  0  0  0  0  0  0
    1.3104   -0.9526    4.0942 H   0  0  0  0  0  0  0  0  0  0  0  0
    1.3760   -1.7100    2.5253 H   0  0  0  0  0  0  0  0  0  0  0  0
    5.4679   -4.2472    0.8914 H   0  0  0  0  0  0  0  0  0  0  0  0
    7.1311   -6.0767    1.1288 H   0  0  0  0  0  0  0  0  0  0  0  0
    7.0115   -5.1940    2.6240 H   0  0  0  0  0  0  0  0  0  0  0  0
    6.9736   -7.6457    3.0606 H   0  0  0  0  0  0  0  0  0  0  0  0
    5.9831   -8.3604    0.8839 H   0  0  0  0  0  0  0  0  0  0  0  0
    5.0925   -9.0457    2.2189 H   0  0  0  0  0  0  0  0  0  0  0  0
    3.5425   -8.0884    0.5462 H   0  0  0  0  0  0  0  0  0  0  0  0
    3.5819   -5.6766   -0.0026 H   0  0  0  0  0  0  0  0  0  0  0  0
    5.1064   -6.3671   -0.3813 H   0  0  0  0  0  0  0  0  0  0  0  0
    2.2048   -6.6488    2.0551 H   0  0  0  0  0  0  0  0  0  0  0  0
    2.8502   -7.9951    2.9411 H   0  0  0  0  0  0  0  0  0  0  0  0
    3.2477   -5.9110    4.2566 H   0  0  0  0  0  0  0  0  0  0  0  0
    4.8903   -7.7304    4.4312 H   0  0  0  0  0  0  0  0  0  0  0  0
    5.6833   -6.1838    4.6052 H   0  0  0  0  0  0  0  0  0  0  0  0
    2.4904   -4.5280    1.3325 H   0  0  0  0  0  0  0  0  0  0  0  0
    1.2774   -3.4974    2.8872 H   0  0  0  0  0  0  0  0  0  0  0  0
  1  2  2  0
  2  3  2  0
  3  4  1  0
  4  5  1  0
  4 26  1  0
  4 27  1  0
  5 10  1  0
  5  6  1  0
  5 28  1  1
  6  7  1  0
  6 29  1  0
  6 30  1  0
  7  8  1  0
  7 31  1  0
  7 32  1  0
  8 25  1  6
  8  9  1  0
  8 11  1  0
  9 10  1  0
 10 33  1  0
 10 34  1  0
 11 12  1  0
 13 12  1  1
 13 21  1  0
 13 14  1  0
 13 23  1  0
 14 19  1  0
 14 15  1  0
 14 35  1  6
 15 16  1  0
 15 36  1  0
 15 37  1  0
 16 22  1  0
 16 17  1  0
 16 38  1  1
 17 18  1  0
 17 39  1  0
 17 40  1  0
 18 19  1  0
 18 20  1  0
 18 41  1  6
 19 42  1  0
 19 43  1  0
 20 21  1  0
 20 44  1  0
 20 45  1  0
 21 22  1  0
 21 46  1  1
 22 47  1  0
 22 48  1  0
 23 24  1  0
 23 25  1  0
 23 49  1  6
 24 50  1  0
M  CHG  2   1  -1   2   1
M  END
>  <i_m_ct_stereo_status>  (198) 
1

>  <s_m_source_file>  (198) 
/var/tmp/pbs.5076255.sched01/tmpi2d1958y/88otlks1nw.sdf

>  <i_m_source_file_index>  (198) 
9

>  <i_lp_mmshare_version>  (198) 
48012

>  <i_f3d_flags>  (198) 
0

>  <s_epik_input>  (198) 
W04tXT1bTitdPU5bQ0gyXVtDQEBIXShbQ0gyXU8xKVtDSDJdW0NIMl1bQ0BAXTEyT09bQ0BAXTMoW0NASF0oTzIpW09IXSlbQ0BIXTRbQ0gyXVtDQEBIXTVbQ0gyXVtDQEhdKFtDSDJdNClbQ0gyXVtDQEhdM1tDSDJdNQ==

>  <s_epik_cmdline>  (198) 
J2VwaWtfcHl0aG9uJywgJy1waHQnLCAnMi4wJywgJy1waCcsICc3LjAnLCAnLXRuJywgJzgnLCAnLW1hJywgJzIwMCcsICctaW1hZScsICc8aW5maWxlLm1hZT4nLCAnLW9tYWUnLCAnPG91dGZpbGUubWFlPic=

>  <r_lp_tautomer_probability>  (198) 
1

>  <r_epik_Ionization_Penalty>  (198) 
7.65587e-06

>  <r_epik_Ionization_Penalty_Charging>  (198) 
0

>  <r_epik_Ionization_Penalty_Neutral>  (198) 
7.65587e-06

>  <r_epik_State_Penalty>  (198) 
-0

>  <r_epik_Charging_Adjusted_Penalty>  (198) 
0

>  <i_epik_Tot_Q>  (198) 
0

>  <i_epik_Tot_abs_Q>  (198) 
2

>  <s_epik_Chemistry_Notes>  (198) 
This compound contains an acetal/aminal-like group ( X-CH(R)-Y where X, Y are N, S, or O) that may be acid/base labile, releasing an aldehyde.

>  <s_lp_Force_Field>  (198) 
OPLS3e

>  <r_lp_Energy>  (198) 
4.45344

>  <b_lp_Chiralities_Consistent>  (198) 
1

>  <s_lp_Variant>  (198) 
63:0-1

>  <s_i_glide_gridfile>  (198) 
pfpi4k_grid

>  <i_i_glide_lignum>  (198) 
9

>  <i_i_glide_rotatable_bonds>  (198) 
3

>  <r_i_docking_score>  (198) 
-2.78925

>  <r_i_glide_ligand_efficiency>  (198) 
-0.11157

>  <r_i_glide_ligand_efficiency_sa>  (198) 
-0.326233

>  <r_i_glide_ligand_efficiency_ln>  (198) 
-0.661137

>  <r_i_glide_gscore>  (198) 
-2.78925

>  <r_i_glide_lipo>  (198) 
-0.478638

>  <r_i_glide_hbond>  (198) 
0

>  <r_i_glide_metal>  (198) 
-0

>  <r_i_glide_rewards>  (198) 
-1.01361

>  <r_i_glide_evdw>  (198) 
-20.6589

>  <r_i_glide_ecoul>  (198) 
-2.95793

>  <r_i_glide_erotb>  (198) 
0.308914

>  <r_i_glide_esite>  (198) 
-0.129292

>  <r_i_glide_emodel>  (198) 
-25.9331

>  <r_i_glide_energy>  (198) 
-23.6168

>  <r_i_glide_einternal>  (198) 
0.903406

>  <r_i_glide_intrahb_reward>  (198) 
-0

>  <i_i_glide_confnum>  (198) 
2

>  <i_i_glide_posenum>  (198) 
30

>  <r_i_glide_eff_state_penalty>  (198) 
0

>  <ligand_id>  (198) 
63

>  <original_smiles>  (198) 
[N-]=[N+]=NCC1CCC2(OC1)OOC1(C3CC4CC(C3)CC1C4)C(O)O2

>  <smiles>  (198) 
[H]OC1([H])OC2(OOC13C1([H])C([H])([H])C4([H])C([H])([H])C([H])(C1([H])[H])C([H])([H])C3([H])C4([H])[H])OC([H])([H])C([H])(C([H])([H])N=[N+]=[N-])C([H])([H])C2([H])[H]

$$$$
63:0:1
     RDKit          3D

 50 54  0  0  1  0  0  0  0  0999 V2000
   -2.1886   -0.3478    5.5410 N   0  0  0  0  0  0  0  0  0  0  0  0
   -1.3131   -1.0675    5.3374 N   0  0  0  0  0  0  0  0  0  0  0  0
   -0.3333   -1.8015    5.2656 N   0  0  0  0  0  0  0  0  0  0  0  0
    0.3945   -1.7623    4.0046 C   0  0  0  0  0  0  0  0  0  0  0  0
    1.8510   -2.2048    4.1956 C   0  0  2  0  0  0  0  0  0  0  0  0
    2.6396   -2.0563    2.8841 C   0  0  0  0  0  0  0  0  0  0  0  0
    4.0458   -2.6775    3.0174 C   0  0  0  0  0  0  0  0  0  0  0  0
    3.9434   -4.1307    3.5302 C   0  0  2  0  0  0  0  0  0  0  0  0
    3.2958   -4.0778    4.7628 O   0  0  0  0  0  0  0  0  0  0  0  0
    1.9245   -3.6609    4.6592 C   0  0  0  0  0  0  0  0  0  0  0  0
    5.2500   -4.6574    3.6192 O   0  0  0  0  0  0  0  0  0  0  0  0
    5.1970   -6.0922    4.0990 O   0  0  0  0  0  0  0  0  0  0  0  0
    4.5097   -6.8962    3.1173 C   0  0  1  0  0  0  0  0  0  0  0  0
    5.2757   -6.9215    1.7511 C   0  0  1  0  0  0  0  0  0  0  0  0
    6.6867   -7.5369    1.9470 C   0  0  0  0  0  0  0  0  0  0  0  0
    6.5559   -8.9882    2.4633 C   0  0  2  0  0  0  0  0  0  0  0  0
    5.7879   -9.8393    1.4302 C   0  0  0  0  0  0  0  0  0  0  0  0
    4.3804   -9.2435    1.2381 C   0  0  2  0  0  0  0  0  0  0  0  0
    4.5171   -7.7985    0.7107 C   0  0  0  0  0  0  0  0  0  0  0  0
    3.6200   -9.2458    2.5809 C   0  0  0  0  0  0  0  0  0  0  0  0
    4.3926   -8.3792    3.6150 C   0  0  1  0  0  0  0  0  0  0  0  0
    5.7975   -8.9906    3.8082 C   0  0  0  0  0  0  0  0  0  0  0  0
    3.1027   -6.2521    2.9517 C   0  0  1  0  0  0  0  0  0  0  0  0
    2.3023   -6.5268    4.0916 O   0  0  0  0  0  0  0  0  0  0  0  0
    3.2099   -4.8926    2.6074 O   0  0  0  0  0  0  0  0  0  0  0  0
   -0.0973   -2.4078    3.2780 H   0  0  0  0  0  0  0  0  0  0  0  0
    0.3857   -0.7589    3.5758 H   0  0  0  0  0  0  0  0  0  0  0  0
    2.3181   -1.5847    4.9618 H   0  0  0  0  0  0  0  0  0  0  0  0
    2.1095   -2.5322    2.0535 H   0  0  0  0  0  0  0  0  0  0  0  0
    2.7247   -0.9977    2.6348 H   0  0  0  0  0  0  0  0  0  0  0  0
    4.5773   -2.6456    2.0647 H   0  0  0  0  0  0  0  0  0  0  0  0
    4.6294   -2.1046    3.7391 H   0  0  0  0  0  0  0  0  0  0  0  0
    1.4393   -3.8056    5.6246 H   0  0  0  0  0  0  0  0  0  0  0  0
    1.3530   -4.2620    3.9484 H   0  0  0  0  0  0  0  0  0  0  0  0
    5.3902   -5.9135    1.3495 H   0  0  0  0  0  0  0  0  0  0  0  0
    7.2535   -7.5245    1.0132 H   0  0  0  0  0  0  0  0  0  0  0  0
    7.2670   -6.9431    2.6542 H   0  0  0  0  0  0  0  0  0  0  0  0
    7.5468   -9.4153    2.6130 H   0  0  0  0  0  0  0  0  0  0  0  0
    6.3251   -9.8549    0.4833 H   0  0  0  0  0  0  0  0  0  0  0  0
    5.7178  -10.8790    1.7563 H   0  0  0  0  0  0  0  0  0  0  0  0
    3.8288   -9.8418    0.5139 H   0  0  0  0  0  0  0  0  0  0  0  0
    3.5401   -7.3831    0.4874 H   0  0  0  0  0  0  0  0  0  0  0  0
    5.0175   -7.7970   -0.2607 H   0  0  0  0  0  0  0  0  0  0  0  0
    2.6043   -8.8774    2.4284 H   0  0  0  0  0  0  0  0  0  0  0  0
    3.5031  -10.2680    2.9496 H   0  0  0  0  0  0  0  0  0  0  0  0
    3.8884   -8.4223    4.5856 H   0  0  0  0  0  0  0  0  0  0  0  0
    5.7146  -10.0104    4.1918 H   0  0  0  0  0  0  0  0  0  0  0  0
    6.3591   -8.4308    4.5570 H   0  0  0  0  0  0  0  0  0  0  0  0
    2.5560   -6.6829    2.1188 H   0  0  0  0  0  0  0  0  0  0  0  0
    2.3876   -7.4454    4.2893 H   0  0  0  0  0  0  0  0  0  0  0  0
  1  2  2  0
  2  3  2  0
  3  4  1  0
  4  5  1  0
  4 26  1  0
  4 27  1  0
  5 10  1  0
  5  6  1  0
  5 28  1  1
  6  7  1  0
  6 29  1  0
  6 30  1  0
  7  8  1  0
  7 31  1  0
  7 32  1  0
  8 25  1  6
  8  9  1  0
  8 11  1  0
  9 10  1  0
 10 33  1  0
 10 34  1  0
 11 12  1  0
 13 12  1  1
 13 21  1  0
 13 14  1  0
 13 23  1  0
 14 19  1  0
 14 15  1  0
 14 35  1  6
 15 16  1  0
 15 36  1  0
 15 37  1  0
 16 22  1  0
 16 17  1  0
 16 38  1  1
 17 18  1  0
 17 39  1  0
 17 40  1  0
 18 19  1  0
 18 20  1  0
 18 41  1  6
 19 42  1  0
 19 43  1  0
 20 21  1  0
 20 44  1  0
 20 45  1  0
 21 22  1  0
 21 46  1  1
 22 47  1  0
 22 48  1  0
 23 24  1  0
 23 25  1  0
 23 49  1  6
 24 50  1  0
M  CHG  2   1  -1   2   1
M  END
>  <i_m_ct_stereo_status>  (199) 
1

>  <s_m_source_file>  (199) 
/var/tmp/pbs.5076255.sched01/tmpi2d1958y/88otlks1nw.sdf

>  <i_m_source_file_index>  (199) 
9

>  <i_lp_mmshare_version>  (199) 
48012

>  <i_f3d_flags>  (199) 
0

>  <s_epik_input>  (199) 
W04tXT1bTitdPU5bQ0gyXVtDQEBIXShbQ0gyXU8xKVtDSDJdW0NIMl1bQ0BAXTEyT09bQ0BAXTMoW0NASF0oTzIpW09IXSlbQ0BIXTRbQ0gyXVtDQEBIXTVbQ0gyXVtDQEhdKFtDSDJdNClbQ0gyXVtDQEhdM1tDSDJdNQ==

>  <s_epik_cmdline>  (199) 
J2VwaWtfcHl0aG9uJywgJy1waHQnLCAnMi4wJywgJy1waCcsICc3LjAnLCAnLXRuJywgJzgnLCAnLW1hJywgJzIwMCcsICctaW1hZScsICc8aW5maWxlLm1hZT4nLCAnLW9tYWUnLCAnPG91dGZpbGUubWFlPic=

>  <r_lp_tautomer_probability>  (199) 
1

>  <r_epik_Ionization_Penalty>  (199) 
7.65587e-06

>  <r_epik_Ionization_Penalty_Charging>  (199) 
0

>  <r_epik_Ionization_Penalty_Neutral>  (199) 
7.65587e-06

>  <r_epik_State_Penalty>  (199) 
-0

>  <r_epik_Charging_Adjusted_Penalty>  (199) 
0

>  <i_epik_Tot_Q>  (199) 
0

>  <i_epik_Tot_abs_Q>  (199) 
2

>  <s_epik_Chemistry_Notes>  (199) 
This compound contains an acetal/aminal-like group ( X-CH(R)-Y where X, Y are N, S, or O) that may be acid/base labile, releasing an aldehyde.

>  <s_lp_Force_Field>  (199) 
OPLS3e

>  <r_lp_Energy>  (199) 
4.45344

>  <b_lp_Chiralities_Consistent>  (199) 
1

>  <s_lp_Variant>  (199) 
63:0-1

>  <s_i_glide_gridfile>  (199) 
pfpi4k_grid

>  <i_i_glide_lignum>  (199) 
9

>  <i_i_glide_rotatable_bonds>  (199) 
3

>  <r_i_docking_score>  (199) 
-2.26128

>  <r_i_glide_ligand_efficiency>  (199) 
-0.0904513

>  <r_i_glide_ligand_efficiency_sa>  (199) 
-0.264481

>  <r_i_glide_ligand_efficiency_ln>  (199) 
-0.535992

>  <r_i_glide_gscore>  (199) 
-2.26128

>  <r_i_glide_lipo>  (199) 
-0.217118

>  <r_i_glide_hbond>  (199) 
0

>  <r_i_glide_metal>  (199) 
-0

>  <r_i_glide_rewards>  (199) 
-1.0132

>  <r_i_glide_evdw>  (199) 
-16.9798

>  <r_i_glide_ecoul>  (199) 
-2.33665

>  <r_i_glide_erotb>  (199) 
0.308914

>  <r_i_glide_esite>  (199) 
-0.140392

>  <r_i_glide_emodel>  (199) 
-19.9016

>  <r_i_glide_energy>  (199) 
-19.3165

>  <r_i_glide_einternal>  (199) 
2.29651

>  <r_i_glide_intrahb_reward>  (199) 
-0

>  <i_i_glide_confnum>  (199) 
2

>  <i_i_glide_posenum>  (199) 
1

>  <r_i_glide_eff_state_penalty>  (199) 
0

>  <ligand_id>  (199) 
63

>  <original_smiles>  (199) 
[N-]=[N+]=NCC1CCC2(OC1)OOC1(C3CC4CC(C3)CC1C4)C(O)O2

>  <smiles>  (199) 
[H]OC1([H])OC2(OOC13C1([H])C([H])([H])C4([H])C([H])([H])C([H])(C1([H])[H])C([H])([H])C3([H])C4([H])[H])OC([H])([H])C([H])(C([H])([H])N=[N+]=[N-])C([H])([H])C2([H])[H]

$$$$
63:0:2
     RDKit          3D

 50 54  0  0  1  0  0  0  0  0999 V2000
   -1.3336   -4.4411    6.9461 N   0  0  0  0  0  0  0  0  0  0  0  0
   -1.1658   -3.3981    6.5111 N   0  0  0  0  0  0  0  0  0  0  0  0
   -0.8898   -2.2570    6.1179 N   0  0  0  0  0  0  0  0  0  0  0  0
   -0.1224   -2.1222    4.8744 C   0  0  0  0  0  0  0  0  0  0  0  0
    1.3694   -2.5079    5.0229 C   0  0  2  0  0  0  0  0  0  0  0  0
    2.1508   -2.1561    3.7389 C   0  0  0  0  0  0  0  0  0  0  0  0
    3.5962   -2.7180    3.8007 C   0  0  0  0  0  0  0  0  0  0  0  0
    3.5772   -4.2339    4.1202 C   0  0  2  0  0  0  0  0  0  0  0  0
    2.9355   -4.3501    5.3434 O   0  0  0  0  0  0  0  0  0  0  0  0
    1.5433   -4.0043    5.3016 C   0  0  0  0  0  0  0  0  0  0  0  0
    4.9036   -4.7085    4.1678 O   0  0  0  0  0  0  0  0  0  0  0  0
    4.9019   -6.1884    4.4909 O   0  0  0  0  0  0  0  0  0  0  0  0
    4.2526   -6.9030    3.4201 C   0  0  1  0  0  0  0  0  0  0  0  0
    5.0271   -6.7319    2.0702 C   0  0  1  0  0  0  0  0  0  0  0  0
    6.4616   -7.2962    2.2139 C   0  0  0  0  0  0  0  0  0  0  0  0
    6.3996   -8.8036    2.5510 C   0  0  2  0  0  0  0  0  0  0  0  0
    5.6790   -9.5623    1.4197 C   0  0  0  0  0  0  0  0  0  0  0  0
    4.2514   -9.0094    1.2720 C   0  0  2  0  0  0  0  0  0  0  0  0
    4.3286   -7.5079    0.9151 C   0  0  0  0  0  0  0  0  0  0  0  0
    3.4759   -9.2078    2.5957 C   0  0  0  0  0  0  0  0  0  0  0  0
    4.2015   -8.4360    3.7368 C   0  0  1  0  0  0  0  0  0  0  0  0
    5.6327   -9.0009    3.8767 C   0  0  0  0  0  0  0  0  0  0  0  0
    2.8163   -6.3103    3.2980 C   0  0  1  0  0  0  0  0  0  0  0  0
    2.0238   -6.7526    4.3960 O   0  0  0  0  0  0  0  0  0  0  0  0
    2.8736   -4.9176    3.1150 O   0  0  0  0  0  0  0  0  0  0  0  0
   -0.5846   -2.7014    4.0775 H   0  0  0  0  0  0  0  0  0  0  0  0
   -0.1912   -1.0868    4.5449 H   0  0  0  0  0  0  0  0  0  0  0  0
    1.8013   -1.9538    5.8552 H   0  0  0  0  0  0  0  0  0  0  0  0
    1.6488   -2.5573    2.8492 H   0  0  0  0  0  0  0  0  0  0  0  0
    2.1871   -1.0738    3.6132 H   0  0  0  0  0  0  0  0  0  0  0  0
    4.1297   -2.5454    2.8675 H   0  0  0  0  0  0  0  0  0  0  0  0
    4.1425   -2.2134    4.6031 H   0  0  0  0  0  0  0  0  0  0  0  0
    1.1321   -4.3121    6.2632 H   0  0  0  0  0  0  0  0  0  0  0  0
    0.9955   -4.5460    4.5262 H   0  0  0  0  0  0  0  0  0  0  0  0
    5.0950   -5.6799    1.7957 H   0  0  0  0  0  0  0  0  0  0  0  0
    7.0344   -7.1467    1.2962 H   0  0  0  0  0  0  0  0  0  0  0  0
    7.0085   -6.7638    2.9932 H   0  0  0  0  0  0  0  0  0  0  0  0
    7.4086   -9.1978    2.6595 H   0  0  0  0  0  0  0  0  0  0  0  0
    6.2285   -9.4434    0.4833 H   0  0  0  0  0  0  0  0  0  0  0  0
    5.6559  -10.6344    1.6185 H   0  0  0  0  0  0  0  0  0  0  0  0
    3.7342   -9.5466    0.4790 H   0  0  0  0  0  0  0  0  0  0  0  0
    3.3346   -7.1163    0.7132 H   0  0  0  0  0  0  0  0  0  0  0  0
    4.8722   -7.3735   -0.0227 H   0  0  0  0  0  0  0  0  0  0  0  0
    2.4475   -8.8612    2.4788 H   0  0  0  0  0  0  0  0  0  0  0  0
    3.4107  -10.2729    2.8411 H   0  0  0  0  0  0  0  0  0  0  0  0
    3.6937   -8.6184    4.6831 H   0  0  0  0  0  0  0  0  0  0  0  0
    5.5945  -10.0620    4.1363 H   0  0  0  0  0  0  0  0  0  0  0  0
    6.1596   -8.5072    4.6958 H   0  0  0  0  0  0  0  0  0  0  0  0
    2.2961   -6.6917    2.4121 H   0  0  0  0  0  0  0  0  0  0  0  0
    2.2142   -7.6679    4.5514 H   0  0  0  0  0  0  0  0  0  0  0  0
  1  2  2  0
  2  3  2  0
  3  4  1  0
  4  5  1  0
  4 26  1  0
  4 27  1  0
  5 10  1  0
  5  6  1  0
  5 28  1  1
  6  7  1  0
  6 29  1  0
  6 30  1  0
  7  8  1  0
  7 31  1  0
  7 32  1  0
  8 25  1  6
  8  9  1  0
  8 11  1  0
  9 10  1  0
 10 33  1  0
 10 34  1  0
 11 12  1  0
 13 12  1  1
 13 21  1  0
 13 14  1  0
 13 23  1  0
 14 19  1  0
 14 15  1  0
 14 35  1  6
 15 16  1  0
 15 36  1  0
 15 37  1  0
 16 22  1  0
 16 17  1  0
 16 38  1  1
 17 18  1  0
 17 39  1  0
 17 40  1  0
 18 19  1  0
 18 20  1  0
 18 41  1  6
 19 42  1  0
 19 43  1  0
 20 21  1  0
 20 44  1  0
 20 45  1  0
 21 22  1  0
 21 46  1  1
 22 47  1  0
 22 48  1  0
 23 24  1  0
 23 25  1  0
 23 49  1  6
 24 50  1  0
M  CHG  2   1  -1   2   1
M  END
>  <i_m_ct_stereo_status>  (200) 
1

>  <s_m_source_file>  (200) 
/var/tmp/pbs.5076255.sched01/tmpi2d1958y/88otlks1nw.sdf

>  <i_m_source_file_index>  (200) 
9

>  <i_lp_mmshare_version>  (200) 
48012

>  <i_f3d_flags>  (200) 
0

>  <s_epik_input>  (200) 
W04tXT1bTitdPU5bQ0gyXVtDQEBIXShbQ0gyXU8xKVtDSDJdW0NIMl1bQ0BAXTEyT09bQ0BAXTMoW0NASF0oTzIpW09IXSlbQ0BIXTRbQ0gyXVtDQEBIXTVbQ0gyXVtDQEhdKFtDSDJdNClbQ0gyXVtDQEhdM1tDSDJdNQ==

>  <s_epik_cmdline>  (200) 
J2VwaWtfcHl0aG9uJywgJy1waHQnLCAnMi4wJywgJy1waCcsICc3LjAnLCAnLXRuJywgJzgnLCAnLW1hJywgJzIwMCcsICctaW1hZScsICc8aW5maWxlLm1hZT4nLCAnLW9tYWUnLCAnPG91dGZpbGUubWFlPic=

>  <r_lp_tautomer_probability>  (200) 
1

>  <r_epik_Ionization_Penalty>  (200) 
7.65587e-06

>  <r_epik_Ionization_Penalty_Charging>  (200) 
0

>  <r_epik_Ionization_Penalty_Neutral>  (200) 
7.65587e-06

>  <r_epik_State_Penalty>  (200) 
-0

>  <r_epik_Charging_Adjusted_Penalty>  (200) 
0

>  <i_epik_Tot_Q>  (200) 
0

>  <i_epik_Tot_abs_Q>  (200) 
2

>  <s_epik_Chemistry_Notes>  (200) 
This compound contains an acetal/aminal-like group ( X-CH(R)-Y where X, Y are N, S, or O) that may be acid/base labile, releasing an aldehyde.

>  <s_lp_Force_Field>  (200) 
OPLS3e

>  <r_lp_Energy>  (200) 
4.45344

>  <b_lp_Chiralities_Consistent>  (200) 
1

>  <s_lp_Variant>  (200) 
63:0-1

>  <s_i_glide_gridfile>  (200) 
pfpi4k_grid

>  <i_i_glide_lignum>  (200) 
9

>  <i_i_glide_rotatable_bonds>  (200) 
3

>  <r_i_docking_score>  (200) 
-2.09272

>  <r_i_glide_ligand_efficiency>  (200) 
-0.083709

>  <r_i_glide_ligand_efficiency_sa>  (200) 
-0.244767

>  <r_i_glide_ligand_efficiency_ln>  (200) 
-0.496038

>  <r_i_glide_gscore>  (200) 
-2.09272

>  <r_i_glide_lipo>  (200) 
-0.189519

>  <r_i_glide_hbond>  (200) 
0

>  <r_i_glide_metal>  (200) 
-0

>  <r_i_glide_rewards>  (200) 
-1.0132

>  <r_i_glide_evdw>  (200) 
-16.2158

>  <r_i_glide_ecoul>  (200) 
-1.99993

>  <r_i_glide_erotb>  (200) 
0.308914

>  <r_i_glide_esite>  (200) 
-0.0881432

>  <r_i_glide_emodel>  (200) 
-18.6308

>  <r_i_glide_energy>  (200) 
-18.2157

>  <r_i_glide_einternal>  (200) 
2.63312

>  <r_i_glide_intrahb_reward>  (200) 
-0

>  <i_i_glide_confnum>  (200) 
2

>  <i_i_glide_posenum>  (200) 
10

>  <r_i_glide_eff_state_penalty>  (200) 
0

>  <ligand_id>  (200) 
63

>  <original_smiles>  (200) 
[N-]=[N+]=NCC1CCC2(OC1)OOC1(C3CC4CC(C3)CC1C4)C(O)O2

>  <smiles>  (200) 
[H]OC1([H])OC2(OOC13C1([H])C([H])([H])C4([H])C([H])([H])C([H])(C1([H])[H])C([H])([H])C3([H])C4([H])[H])OC([H])([H])C([H])(C([H])([H])N=[N+]=[N-])C([H])([H])C2([H])[H]

$$$$
65:0:0
     RDKit          3D

 30 32  0  0  1  0  0  0  0  0999 V2000
    2.2366   -3.3924    2.4490 C   0  0  0  0  0  0  0  0  0  0  0  0
    2.6239   -3.5018    1.0882 O   0  0  0  0  0  0  0  0  0  0  0  0
    3.1656   -2.2809    0.6709 N   0  0  0  0  0  0  0  0  0  0  0  0
    3.4814   -2.2926   -0.5619 C   0  0  0  0  0  0  0  0  0  0  0  0
    4.0903   -1.0926   -1.2787 C   0  0  1  0  0  0  0  0  0  0  0  0
    5.4895   -1.4851   -1.7979 C   0  0  0  0  0  0  0  0  0  0  0  0
    5.3841   -2.6671   -2.7846 C   0  0  2  0  0  0  0  0  0  0  0  0
    4.4814   -2.2778   -3.9761 C   0  0  0  0  0  0  0  0  0  0  0  0
    3.0846   -1.8770   -3.4714 C   0  0  2  0  0  0  0  0  0  0  0  0
    3.2323   -0.6800   -2.5167 C   0  0  0  0  0  0  0  0  0  0  0  0
    2.4435   -3.0523   -2.7124 C   0  0  0  0  0  0  0  0  0  0  0  0
    3.3476   -3.4717   -1.5283 C   0  0  1  0  0  0  0  0  0  0  0  0
    4.7532   -3.8583   -2.0504 C   0  0  0  0  0  0  0  0  0  0  0  0
    1.8320   -4.3554    2.7680 H   0  0  0  0  0  0  0  0  0  0  0  0
    1.4568   -2.6365    2.5827 H   0  0  0  0  0  0  0  0  0  0  0  0
    3.0872   -3.1519    3.0939 H   0  0  0  0  0  0  0  0  0  0  0  0
    4.1998   -0.2559   -0.5878 H   0  0  0  0  0  0  0  0  0  0  0  0
    5.8983   -0.6214   -2.3060 H   0  0  0  0  0  0  0  0  0  0  0  0
    6.1597   -1.7419   -0.9770 H   0  0  0  0  0  0  0  0  0  0  0  0
    6.3745   -2.9497   -3.1451 H   0  0  0  0  0  0  0  0  0  0  0  0
    4.9085   -1.4340   -4.5196 H   0  0  0  0  0  0  0  0  0  0  0  0
    4.3981   -3.1128   -4.6707 H   0  0  0  0  0  0  0  0  0  0  0  0
    2.4526   -1.5976   -4.3166 H   0  0  0  0  0  0  0  0  0  0  0  0
    2.2290   -0.3440   -2.2645 H   0  0  0  0  0  0  0  0  0  0  0  0
    3.6997    0.1578   -3.0424 H   0  0  0  0  0  0  0  0  0  0  0  0
    1.4568   -2.7676   -2.3433 H   0  0  0  0  0  0  0  0  0  0  0  0
    2.2929   -3.8907   -3.3904 H   0  0  0  0  0  0  0  0  0  0  0  0
    2.9071   -4.3429   -1.0539 H   0  0  0  0  0  0  0  0  0  0  0  0
    4.6811   -4.6895   -2.7475 H   0  0  0  0  0  0  0  0  0  0  0  0
    5.3963   -4.1754   -1.2296 H   0  0  0  0  0  0  0  0  0  0  0  0
  1  2  1  0
  1 14  1  0
  1 15  1  0
  1 16  1  0
  2  3  1  0
  3  4  2  3
  4 12  1  0
  4  5  1  0
  5 10  1  0
  5  6  1  0
  5 17  1  1
  6  7  1  0
  6 18  1  0
  6 19  1  0
  7 13  1  0
  7  8  1  0
  7 20  1  6
  8  9  1  0
  8 21  1  0
  8 22  1  0
  9 10  1  0
  9 11  1  0
  9 23  1  6
 10 24  1  0
 10 25  1  0
 11 12  1  0
 11 26  1  0
 11 27  1  0
 12 13  1  0
 12 28  1  1
 13 29  1  0
 13 30  1  0
M  END
>  <i_m_ct_stereo_status>  (201) 
1

>  <s_m_source_file>  (201) 
/var/tmp/pbs.5076255.sched01/tmpi2d1958y/88otlks1nw.sdf

>  <i_m_source_file_index>  (201) 
11

>  <i_lp_mmshare_version>  (201) 
48012

>  <i_f3d_flags>  (201) 
0

>  <s_epik_input>  (201) 
W0NIM11PTj1DKFtDQEBIXTEyKVtDQEhdM1tDSDJdW0NAQEhdKFtDSDJdMilbQ0gyXVtDQEBIXShbQ0gyXTEpW0NIMl0z

>  <s_epik_cmdline>  (201) 
J2VwaWtfcHl0aG9uJywgJy1waHQnLCAnMi4wJywgJy1waCcsICc3LjAnLCAnLXRuJywgJzgnLCAnLW1hJywgJzIwMCcsICctaW1hZScsICc8aW5maWxlLm1hZT4nLCAnLW9tYWUnLCAnPG91dGZpbGUubWFlPic=

>  <r_lp_tautomer_probability>  (201) 
1

>  <r_epik_Ionization_Penalty>  (201) 
6.94481e-08

>  <r_epik_Ionization_Penalty_Charging>  (201) 
0

>  <r_epik_Ionization_Penalty_Neutral>  (201) 
6.94481e-08

>  <r_epik_State_Penalty>  (201) 
-0

>  <r_epik_Charging_Adjusted_Penalty>  (201) 
0

>  <i_epik_Tot_Q>  (201) 
0

>  <i_epik_Tot_abs_Q>  (201) 
0

>  <s_epik_Chemistry_Notes>  (201) 
This compound has an imine and may undergo hydrolysis.

>  <s_lp_Force_Field>  (201) 
OPLS3e

>  <r_lp_Energy>  (201) 
12.1789

>  <b_lp_Chiralities_Consistent>  (201) 
1

>  <s_lp_Variant>  (201) 
65:0-1

>  <s_i_glide_gridfile>  (201) 
pfpi4k_grid

>  <i_i_glide_lignum>  (201) 
11

>  <i_i_glide_rotatable_bonds>  (201) 
1

>  <r_i_docking_score>  (201) 
-3.04584

>  <r_i_glide_ligand_efficiency>  (201) 
-0.234296

>  <r_i_glide_ligand_efficiency_sa>  (201) 
-0.550907

>  <r_i_glide_ligand_efficiency_ln>  (201) 
-0.854386

>  <r_i_glide_gscore>  (201) 
-3.04584

>  <r_i_glide_lipo>  (201) 
-0.439938

>  <r_i_glide_hbond>  (201) 
0

>  <r_i_glide_metal>  (201) 
-0

>  <r_i_glide_rewards>  (201) 
-2.18687

>  <r_i_glide_evdw>  (201) 
-15.0122

>  <r_i_glide_ecoul>  (201) 
-0.253175

>  <r_i_glide_erotb>  (201) 
0.489417

>  <r_i_glide_esite>  (201) 
-0.119862

>  <r_i_glide_emodel>  (201) 
-18.1622

>  <r_i_glide_energy>  (201) 
-15.2654

>  <r_i_glide_einternal>  (201) 
0.000141253

>  <r_i_glide_intrahb_reward>  (201) 
-0

>  <i_i_glide_confnum>  (201) 
1

>  <i_i_glide_posenum>  (201) 
1

>  <r_i_glide_eff_state_penalty>  (201) 
0

>  <ligand_id>  (201) 
65

>  <original_smiles>  (201) 
CON=C1C2CC3CC(C2)CC1C3

>  <smiles>  (201) 
[H]C([H])([H])ON=C1C2([H])C([H])([H])C3([H])C([H])([H])C1([H])C([H])([H])C([H])(C2([H])[H])C3([H])[H]

$$$$
65:0:1
     RDKit          3D

 30 32  0  0  1  0  0  0  0  0999 V2000
    2.4083   -5.2019    1.7095 C   0  0  0  0  0  0  0  0  0  0  0  0
    2.4421   -4.3923    0.5530 O   0  0  0  0  0  0  0  0  0  0  0  0
    3.7446   -4.3994    0.0421 N   0  0  0  0  0  0  0  0  0  0  0  0
    3.8482   -3.6566   -0.9923 C   0  0  0  0  0  0  0  0  0  0  0  0
    5.1388   -3.5006   -1.7893 C   0  0  1  0  0  0  0  0  0  0  0  0
    4.8961   -3.9034   -3.2642 C   0  0  0  0  0  0  0  0  0  0  0  0
    3.7761   -3.0462   -3.8890 C   0  0  2  0  0  0  0  0  0  0  0  0
    4.1721   -1.5580   -3.8679 C   0  0  0  0  0  0  0  0  0  0  0  0
    4.5000   -1.1401   -2.4132 C   0  0  2  0  0  0  0  0  0  0  0  0
    5.5890   -2.0205   -1.7636 C   0  0  0  0  0  0  0  0  0  0  0  0
    3.2265   -1.3214   -1.5923 C   0  0  0  0  0  0  0  0  0  0  0  0
    2.7500   -2.7878   -1.6252 C   0  0  1  0  0  0  0  0  0  0  0  0
    2.4865   -3.2298   -3.0791 C   0  0  0  0  0  0  0  0  0  0  0  0
    1.4008   -5.1837    2.1199 H   0  0  0  0  0  0  0  0  0  0  0  0
    3.0808   -4.8328    2.4863 H   0  0  0  0  0  0  0  0  0  0  0  0
    2.6547   -6.2414    1.4835 H   0  0  0  0  0  0  0  0  0  0  0  0
    5.9118   -4.1223   -1.3506 H   0  0  0  0  0  0  0  0  0  0  0  0
    5.8170   -3.7744   -3.8402 H   0  0  0  0  0  0  0  0  0  0  0  0
    4.6316   -4.9523   -3.3473 H   0  0  0  0  0  0  0  0  0  0  0  0
    3.5827   -3.3817   -4.9017 H   0  0  0  0  0  0  0  0  0  0  0  0
    5.0168   -1.3853   -4.5154 H   0  0  0  0  0  0  0  0  0  0  0  0
    3.3625   -0.9407   -4.2820 H   0  0  0  0  0  0  0  0  0  0  0  0
    4.7832   -0.0869   -2.3944 H   0  0  0  0  0  0  0  0  0  0  0  0
    5.7710   -1.6867   -0.7423 H   0  0  0  0  0  0  0  0  0  0  0  0
    6.5385   -1.9251   -2.2774 H   0  0  0  0  0  0  0  0  0  0  0  0
    3.3590   -0.9825   -0.5640 H   0  0  0  0  0  0  0  0  0  0  0  0
    2.4936   -0.6852   -2.0692 H   0  0  0  0  0  0  0  0  0  0  0  0
    1.8158   -2.8837   -1.0985 H   0  0  0  0  0  0  0  0  0  0  0  0
    1.6946   -2.6145   -3.5091 H   0  0  0  0  0  0  0  0  0  0  0  0
    2.1416   -4.2525   -3.1376 H   0  0  0  0  0  0  0  0  0  0  0  0
  1  2  1  0
  1 14  1  0
  1 15  1  0
  1 16  1  0
  2  3  1  0
  3  4  2  3
  4 12  1  0
  4  5  1  0
  5 10  1  0
  5  6  1  0
  5 17  1  1
  6  7  1  0
  6 18  1  0
  6 19  1  0
  7 13  1  0
  7  8  1  0
  7 20  1  6
  8  9  1  0
  8 21  1  0
  8 22  1  0
  9 10  1  0
  9 11  1  0
  9 23  1  6
 10 24  1  0
 10 25  1  0
 11 12  1  0
 11 26  1  0
 11 27  1  0
 12 13  1  0
 12 28  1  1
 13 29  1  0
 13 30  1  0
M  END
>  <i_m_ct_stereo_status>  (202) 
1

>  <s_m_source_file>  (202) 
/var/tmp/pbs.5076255.sched01/tmpi2d1958y/88otlks1nw.sdf

>  <i_m_source_file_index>  (202) 
11

>  <i_lp_mmshare_version>  (202) 
48012

>  <i_f3d_flags>  (202) 
0

>  <s_epik_input>  (202) 
W0NIM11PTj1DKFtDQEBIXTEyKVtDQEhdM1tDSDJdW0NAQEhdKFtDSDJdMilbQ0gyXVtDQEBIXShbQ0gyXTEpW0NIMl0z

>  <s_epik_cmdline>  (202) 
J2VwaWtfcHl0aG9uJywgJy1waHQnLCAnMi4wJywgJy1waCcsICc3LjAnLCAnLXRuJywgJzgnLCAnLW1hJywgJzIwMCcsICctaW1hZScsICc8aW5maWxlLm1hZT4nLCAnLW9tYWUnLCAnPG91dGZpbGUubWFlPic=

>  <r_lp_tautomer_probability>  (202) 
1

>  <r_epik_Ionization_Penalty>  (202) 
6.94481e-08

>  <r_epik_Ionization_Penalty_Charging>  (202) 
0

>  <r_epik_Ionization_Penalty_Neutral>  (202) 
6.94481e-08

>  <r_epik_State_Penalty>  (202) 
-0

>  <r_epik_Charging_Adjusted_Penalty>  (202) 
0

>  <i_epik_Tot_Q>  (202) 
0

>  <i_epik_Tot_abs_Q>  (202) 
0

>  <s_epik_Chemistry_Notes>  (202) 
This compound has an imine and may undergo hydrolysis.

>  <s_lp_Force_Field>  (202) 
OPLS3e

>  <r_lp_Energy>  (202) 
12.1789

>  <b_lp_Chiralities_Consistent>  (202) 
1

>  <s_lp_Variant>  (202) 
65:0-1

>  <s_i_glide_gridfile>  (202) 
pfpi4k_grid

>  <i_i_glide_lignum>  (202) 
11

>  <i_i_glide_rotatable_bonds>  (202) 
1

>  <r_i_docking_score>  (202) 
-2.9046

>  <r_i_glide_ligand_efficiency>  (202) 
-0.22343

>  <r_i_glide_ligand_efficiency_sa>  (202) 
-0.52536

>  <r_i_glide_ligand_efficiency_ln>  (202) 
-0.814765

>  <r_i_glide_gscore>  (202) 
-2.9046

>  <r_i_glide_lipo>  (202) 
-0.431667

>  <r_i_glide_hbond>  (202) 
0

>  <r_i_glide_metal>  (202) 
-0

>  <r_i_glide_rewards>  (202) 
-2.18687

>  <r_i_glide_evdw>  (202) 
-14.1561

>  <r_i_glide_ecoul>  (202) 
-0.0521887

>  <r_i_glide_erotb>  (202) 
0.489417

>  <r_i_glide_esite>  (202) 
-0.0598416

>  <r_i_glide_emodel>  (202) 
-16.8814

>  <r_i_glide_energy>  (202) 
-14.2083

>  <r_i_glide_einternal>  (202) 
0.00321289

>  <r_i_glide_intrahb_reward>  (202) 
-0

>  <i_i_glide_confnum>  (202) 
1

>  <i_i_glide_posenum>  (202) 
6

>  <r_i_glide_eff_state_penalty>  (202) 
0

>  <ligand_id>  (202) 
65

>  <original_smiles>  (202) 
CON=C1C2CC3CC(C2)CC1C3

>  <smiles>  (202) 
[H]C([H])([H])ON=C1C2([H])C([H])([H])C3([H])C([H])([H])C1([H])C([H])([H])C([H])(C2([H])[H])C3([H])[H]

$$$$
65:0:2
     RDKit          3D

 30 32  0  0  1  0  0  0  0  0999 V2000
    2.7346   -6.7175    1.5310 C   0  0  0  0  0  0  0  0  0  0  0  0
    2.8088   -5.4642    0.8765 O   0  0  0  0  0  0  0  0  0  0  0  0
    4.1296   -5.2506    0.4575 N   0  0  0  0  0  0  0  0  0  0  0  0
    4.2692   -4.1465   -0.1617 C   0  0  0  0  0  0  0  0  0  0  0  0
    5.6110   -3.6746   -0.7338 C   0  0  1  0  0  0  0  0  0  0  0  0
    5.4691   -3.4751   -2.2637 C   0  0  0  0  0  0  0  0  0  0  0  0
    4.3770   -2.4187   -2.5590 C   0  0  2  0  0  0  0  0  0  0  0  0
    4.7535   -1.0750   -1.9037 C   0  0  0  0  0  0  0  0  0  0  0  0
    4.9062   -1.2661   -0.3755 C   0  0  2  0  0  0  0  0  0  0  0  0
    6.0061   -2.3165   -0.0979 C   0  0  0  0  0  0  0  0  0  0  0  0
    3.5787   -1.7758    0.2245 C   0  0  0  0  0  0  0  0  0  0  0  0
    3.1724   -3.1049   -0.4399 C   0  0  1  0  0  0  0  0  0  0  0  0
    3.0379   -2.9122   -1.9690 C   0  0  0  0  0  0  0  0  0  0  0  0
    1.7015   -6.8818    1.8417 H   0  0  0  0  0  0  0  0  0  0  0  0
    3.3647   -6.7459    2.4248 H   0  0  0  0  0  0  0  0  0  0  0  0
    3.0234   -7.5368    0.8758 H   0  0  0  0  0  0  0  0  0  0  0  0
    6.3843   -4.4160   -0.5202 H   0  0  0  0  0  0  0  0  0  0  0  0
    6.4220   -3.1525   -2.6899 H   0  0  0  0  0  0  0  0  0  0  0  0
    5.2090   -4.4168   -2.7489 H   0  0  0  0  0  0  0  0  0  0  0  0
    4.2690   -2.2883   -3.6355 H   0  0  0  0  0  0  0  0  0  0  0  0
    5.6763   -0.6928   -2.3240 H   0  0  0  0  0  0  0  0  0  0  0  0
    3.9861   -0.3296   -2.1151 H   0  0  0  0  0  0  0  0  0  0  0  0
    5.1711   -0.3140    0.0841 H   0  0  0  0  0  0  0  0  0  0  0  0
    6.1567   -2.4259    0.9771 H   0  0  0  0  0  0  0  0  0  0  0  0
    6.9557   -1.9790   -0.5129 H   0  0  0  0  0  0  0  0  0  0  0  0
    3.6866   -1.9088    1.3023 H   0  0  0  0  0  0  0  0  0  0  0  0
    2.7977   -1.0313    0.0729 H   0  0  0  0  0  0  0  0  0  0  0  0
    2.2009   -3.4058   -0.0476 H   0  0  0  0  0  0  0  0  0  0  0  0
    2.2378   -2.2013   -2.1790 H   0  0  0  0  0  0  0  0  0  0  0  0
    2.7396   -3.8455   -2.4472 H   0  0  0  0  0  0  0  0  0  0  0  0
  1  2  1  0
  1 14  1  0
  1 15  1  0
  1 16  1  0
  2  3  1  0
  3  4  2  3
  4 12  1  0
  4  5  1  0
  5 10  1  0
  5  6  1  0
  5 17  1  6
  6  7  1  0
  6 18  1  0
  6 19  1  0
  7 13  1  0
  7  8  1  0
  7 20  1  6
  8  9  1  0
  8 21  1  0
  8 22  1  0
  9 10  1  0
  9 11  1  0
  9 23  1  1
 10 24  1  0
 10 25  1  0
 11 12  1  0
 11 26  1  0
 11 27  1  0
 12 13  1  0
 12 28  1  1
 13 29  1  0
 13 30  1  0
M  END
>  <i_m_ct_stereo_status>  (203) 
1

>  <s_m_source_file>  (203) 
/var/tmp/pbs.5076255.sched01/tmpi2d1958y/88otlks1nw.sdf

>  <i_m_source_file_index>  (203) 
11

>  <i_lp_mmshare_version>  (203) 
48012

>  <i_f3d_flags>  (203) 
0

>  <s_epik_input>  (203) 
W0NIM11PTj1DKFtDQEBIXTEyKVtDQEhdM1tDSDJdW0NAQEhdKFtDSDJdMilbQ0gyXVtDQEBIXShbQ0gyXTEpW0NIMl0z

>  <s_epik_cmdline>  (203) 
J2VwaWtfcHl0aG9uJywgJy1waHQnLCAnMi4wJywgJy1waCcsICc3LjAnLCAnLXRuJywgJzgnLCAnLW1hJywgJzIwMCcsICctaW1hZScsICc8aW5maWxlLm1hZT4nLCAnLW9tYWUnLCAnPG91dGZpbGUubWFlPic=

>  <r_lp_tautomer_probability>  (203) 
1

>  <r_epik_Ionization_Penalty>  (203) 
6.94481e-08

>  <r_epik_Ionization_Penalty_Charging>  (203) 
0

>  <r_epik_Ionization_Penalty_Neutral>  (203) 
6.94481e-08

>  <r_epik_State_Penalty>  (203) 
-0

>  <r_epik_Charging_Adjusted_Penalty>  (203) 
0

>  <i_epik_Tot_Q>  (203) 
0

>  <i_epik_Tot_abs_Q>  (203) 
0

>  <s_epik_Chemistry_Notes>  (203) 
This compound has an imine and may undergo hydrolysis.

>  <s_lp_Force_Field>  (203) 
OPLS3e

>  <r_lp_Energy>  (203) 
12.1789

>  <b_lp_Chiralities_Consistent>  (203) 
1

>  <s_lp_Variant>  (203) 
65:0-1

>  <s_i_glide_gridfile>  (203) 
pfpi4k_grid

>  <i_i_glide_lignum>  (203) 
11

>  <i_i_glide_rotatable_bonds>  (203) 
1

>  <r_i_docking_score>  (203) 
-2.88893

>  <r_i_glide_ligand_efficiency>  (203) 
-0.222225

>  <r_i_glide_ligand_efficiency_sa>  (203) 
-0.522526

>  <r_i_glide_ligand_efficiency_ln>  (203) 
-0.810371

>  <r_i_glide_gscore>  (203) 
-2.88893

>  <r_i_glide_lipo>  (203) 
-0.352668

>  <r_i_glide_hbond>  (203) 
0

>  <r_i_glide_metal>  (203) 
-0

>  <r_i_glide_rewards>  (203) 
-2.18687

>  <r_i_glide_evdw>  (203) 
-15.2584

>  <r_i_glide_ecoul>  (203) 
-0.315181

>  <r_i_glide_erotb>  (203) 
0.489417

>  <r_i_glide_esite>  (203) 
-0.0286125

>  <r_i_glide_emodel>  (203) 
-18.3952

>  <r_i_glide_energy>  (203) 
-15.5735

>  <r_i_glide_einternal>  (203) 
0.00215948

>  <r_i_glide_intrahb_reward>  (203) 
-0

>  <i_i_glide_confnum>  (203) 
2

>  <i_i_glide_posenum>  (203) 
9

>  <r_i_glide_eff_state_penalty>  (203) 
0

>  <ligand_id>  (203) 
65

>  <original_smiles>  (203) 
CON=C1C2CC3CC(C2)CC1C3

>  <smiles>  (203) 
[H]C([H])([H])ON=C1C2([H])C([H])([H])C3([H])C([H])([H])C1([H])C([H])([H])C([H])(C2([H])[H])C3([H])[H]

$$$$
66:0:0
     RDKit          3D

 25 26  0  0  1  0  0  0  0  0999 V2000
    7.7498   -6.1323    1.8348 C   0  0  0  0  0  0  0  0  0  0  0  0
    6.4478   -6.0609    1.1993 N   0  0  0  0  0  0  0  0  0  0  0  0
    6.0789   -5.0210    0.5246 C   0  0  0  0  0  0  0  0  0  0  0  0
    6.8768   -3.9115    0.3030 N   0  0  0  0  0  0  0  0  0  0  0  0
    6.3929   -2.8993   -0.4467 C   0  0  0  0  0  0  0  0  0  0  0  0
    7.0443   -1.8885   -0.6762 O   0  0  0  0  0  0  0  0  0  0  0  0
    5.0288   -3.1802   -0.9257 C   0  0  0  0  0  0  0  0  0  0  0  0
    4.2511   -2.4411   -1.7419 C   0  0  0  0  0  0  0  0  0  0  0  0
    4.5413   -1.1276   -2.2964 C   0  0  0  0  0  0  0  0  0  0  0  0
    3.8179   -0.5464   -3.2660 C   0  0  0  0  0  0  0  0  0  0  0  0
    4.0521    0.7572   -3.8364 C   0  0  0  0  0  0  0  0  0  0  0  0
    3.1461    0.9637   -4.7925 C   0  0  0  0  0  0  0  0  0  0  0  0
    2.2766   -0.1790   -4.8554 C   0  0  0  0  0  0  0  0  0  0  0  0
    2.6709   -1.0937   -3.9547 C   0  0  0  0  0  0  0  0  0  0  0  0
    4.4951   -4.7191   -0.2854 S   0  0  0  0  0  0  0  0  0  0  0  0
    7.8317   -7.0840    2.3621 H   0  0  0  0  0  0  0  0  0  0  0  0
    7.8808   -5.3547    2.5851 H   0  0  0  0  0  0  0  0  0  0  0  0
    8.5706   -6.1036    1.1196 H   0  0  0  0  0  0  0  0  0  0  0  0
    7.8055   -3.8446    0.6994 H   0  0  0  0  0  0  0  0  0  0  0  0
    3.2777   -2.8648   -1.9638 H   0  0  0  0  0  0  0  0  0  0  0  0
    5.3448   -0.5528   -1.8685 H   0  0  0  0  0  0  0  0  0  0  0  0
    4.7484    1.5137   -3.5223 H   0  0  0  0  0  0  0  0  0  0  0  0
    3.0349    1.8808   -5.3480 H   0  0  0  0  0  0  0  0  0  0  0  0
    1.4265   -0.2554   -5.5121 H   0  0  0  0  0  0  0  0  0  0  0  0
    2.1936   -2.0458   -3.7704 H   0  0  0  0  0  0  0  0  0  0  0  0
  1  2  1  0
  1 16  1  0
  1 17  1  0
  1 18  1  0
  2  3  2  3
  3 15  1  0
  3  4  1  0
  4  5  1  0
  4 19  1  0
  5  6  2  0
  5  7  1  0
  7  8  2  3
  7 15  1  0
  8  9  1  0
  8 20  1  0
  9 10  2  3
  9 21  1  0
 10 14  1  0
 10 11  1  0
 11 12  2  0
 11 22  1  0
 12 13  1  0
 12 23  1  0
 13 14  2  0
 13 24  1  0
 14 25  1  0
M  END
>  <i_m_ct_stereo_status>  (204) 
1

>  <s_m_source_file>  (204) 
/var/tmp/pbs.5076255.sched01/tmpi2d1958y/88otlks1nw.sdf

>  <i_m_source_file_index>  (204) 
12

>  <i_lp_mmshare_version>  (204) 
48012

>  <i_f3d_flags>  (204) 
0

>  <s_epik_input>  (204) 
W0NIM10vTj1DMVxbTkhdQyg9TykvQyhTMSk9W0NIXVxbQ0hdPUMyW0NIXT1bQ0hdW0NIXT1bQ0hdMg==

>  <s_epik_cmdline>  (204) 
J2VwaWtfcHl0aG9uJywgJy1waHQnLCAnMi4wJywgJy1waCcsICc3LjAnLCAnLXRuJywgJzgnLCAnLW1hJywgJzIwMCcsICctaW1hZScsICc8aW5maWxlLm1hZT4nLCAnLW9tYWUnLCAnPG91dGZpbGUubWFlPic=

>  <r_epik_Ionization_Penalty>  (204) 
0.161451

>  <r_epik_Ionization_Penalty_Charging>  (204) 
0

>  <r_epik_Ionization_Penalty_Neutral>  (204) 
0.161451

>  <r_epik_State_Penalty>  (204) 
0.33554

>  <r_epik_Charging_Adjusted_Penalty>  (204) 
0.33554

>  <i_epik_Tot_Q>  (204) 
0

>  <i_epik_Tot_abs_Q>  (204) 
0

>  <s_epik_Chemistry_Notes>  (204) 
This compound has an imine and may undergo hydrolysis.

>  <s_lp_Force_Field>  (204) 
OPLS3e

>  <r_lp_Energy>  (204) 
11.8665

>  <b_lp_Chiralities_Consistent>  (204) 
1

>  <s_lp_Variant>  (204) 
66:0-1

>  <s_i_glide_gridfile>  (204) 
pfpi4k_grid

>  <i_i_glide_lignum>  (204) 
12

>  <i_i_glide_rotatable_bonds>  (204) 
1

>  <r_i_docking_score>  (204) 
-3.55879

>  <r_i_glide_ligand_efficiency>  (204) 
-0.237253

>  <r_i_glide_ligand_efficiency_sa>  (204) 
-0.585115

>  <r_i_glide_ligand_efficiency_ln>  (204) 
-0.959746

>  <r_i_glide_gscore>  (204) 
-3.55879

>  <r_i_glide_lipo>  (204) 
-0.300274

>  <r_i_glide_hbond>  (204) 
-0.16

>  <r_i_glide_metal>  (204) 
-0

>  <r_i_glide_rewards>  (204) 
-2.11887

>  <r_i_glide_evdw>  (204) 
-17.9196

>  <r_i_glide_ecoul>  (204) 
-2.90881

>  <r_i_glide_erotb>  (204) 
0.35266

>  <r_i_glide_esite>  (204) 
0

>  <r_i_glide_emodel>  (204) 
-24.9931

>  <r_i_glide_energy>  (204) 
-20.8284

>  <r_i_glide_einternal>  (204) 
0.657825

>  <r_i_glide_intrahb_reward>  (204) 
-0

>  <i_i_glide_confnum>  (204) 
1

>  <i_i_glide_posenum>  (204) 
2

>  <r_i_glide_eff_state_penalty>  (204) 
0

>  <ligand_id>  (204) 
66

>  <original_smiles>  (204) 
CN=C1NC(=O)C(=CC=C2C=CC=C2)S1

>  <smiles>  (204) 
[H]C1=C([H])C(=C([H])C([H])=C2SC(=NC([H])([H])[H])N([H])C2=O)C([H])=C1[H]

$$$$
66:0:1
     RDKit          3D

 25 26  0  0  1  0  0  0  0  0999 V2000
    0.6893    1.3414    1.3085 C   0  0  0  0  0  0  0  0  0  0  0  0
    0.3363    0.6069    2.4974 N   0  0  0  0  0  0  0  0  0  0  0  0
   -0.2040    1.2024    3.5094 C   0  0  0  0  0  0  0  0  0  0  0  0
   -0.4731    2.5573    3.5485 N   0  0  0  0  0  0  0  0  0  0  0  0
   -1.0251    3.0708    4.6656 C   0  0  0  0  0  0  0  0  0  0  0  0
   -1.2967    4.2707    4.7738 O   0  0  0  0  0  0  0  0  0  0  0  0
   -1.2428    2.0389    5.6861 C   0  0  0  0  0  0  0  0  0  0  0  0
   -1.6761    2.1732    6.9529 C   0  0  0  0  0  0  0  0  0  0  0  0
   -2.1465    3.3875    7.5864 C   0  0  0  0  0  0  0  0  0  0  0  0
   -2.1234    3.5849    8.9136 C   0  0  0  0  0  0  0  0  0  0  0  0
   -2.6001    4.7653    9.5864 C   0  0  0  0  0  0  0  0  0  0  0  0
   -2.3429    4.6113   10.8936 C   0  0  0  0  0  0  0  0  0  0  0  0
   -1.7013    3.3331   11.1036 C   0  0  0  0  0  0  0  0  0  0  0  0
   -1.5661    2.7127    9.9235 C   0  0  0  0  0  0  0  0  0  0  0  0
   -0.7345    0.4768    5.0711 S   0  0  0  0  0  0  0  0  0  0  0  0
    1.1390    0.6470    0.6026 H   0  0  0  0  0  0  0  0  0  0  0  0
    1.4326    2.1080    1.4901 H   0  0  0  0  0  0  0  0  0  0  0  0
   -0.1804    1.7673    0.8254 H   0  0  0  0  0  0  0  0  0  0  0  0
   -0.2501    3.1579    2.7564 H   0  0  0  0  0  0  0  0  0  0  0  0
   -1.7336    1.2712    7.5486 H   0  0  0  0  0  0  0  0  0  0  0  0
   -2.6072    4.1336    6.9603 H   0  0  0  0  0  0  0  0  0  0  0  0
   -3.0677    5.6238    9.1275 H   0  0  0  0  0  0  0  0  0  0  0  0
   -2.5579    5.3263   11.6708 H   0  0  0  0  0  0  0  0  0  0  0  0
   -1.3875    2.9435   12.0628 H   0  0  0  0  0  0  0  0  0  0  0  0
   -1.1217    1.7404    9.7792 H   0  0  0  0  0  0  0  0  0  0  0  0
  1  2  1  0
  1 16  1  0
  1 17  1  0
  1 18  1  0
  2  3  2  3
  3 15  1  0
  3  4  1  0
  4  5  1  0
  4 19  1  0
  5  6  2  0
  5  7  1  0
  7  8  2  3
  7 15  1  0
  8  9  1  0
  8 20  1  0
  9 10  2  3
  9 21  1  0
 10 14  1  0
 10 11  1  0
 11 12  2  0
 11 22  1  0
 12 13  1  0
 12 23  1  0
 13 14  2  0
 13 24  1  0
 14 25  1  0
M  END
>  <i_m_ct_stereo_status>  (205) 
1

>  <s_m_source_file>  (205) 
/var/tmp/pbs.5076255.sched01/tmpi2d1958y/88otlks1nw.sdf

>  <i_m_source_file_index>  (205) 
12

>  <i_lp_mmshare_version>  (205) 
48012

>  <i_f3d_flags>  (205) 
0

>  <s_epik_input>  (205) 
W0NIM10vTj1DMVxbTkhdQyg9TykvQyhTMSk9W0NIXVxbQ0hdPUMyW0NIXT1bQ0hdW0NIXT1bQ0hdMg==

>  <s_epik_cmdline>  (205) 
J2VwaWtfcHl0aG9uJywgJy1waHQnLCAnMi4wJywgJy1waCcsICc3LjAnLCAnLXRuJywgJzgnLCAnLW1hJywgJzIwMCcsICctaW1hZScsICc8aW5maWxlLm1hZT4nLCAnLW9tYWUnLCAnPG91dGZpbGUubWFlPic=

>  <r_epik_Ionization_Penalty>  (205) 
0.161451

>  <r_epik_Ionization_Penalty_Charging>  (205) 
0

>  <r_epik_Ionization_Penalty_Neutral>  (205) 
0.161451

>  <r_epik_State_Penalty>  (205) 
0.33554

>  <r_epik_Charging_Adjusted_Penalty>  (205) 
0.33554

>  <i_epik_Tot_Q>  (205) 
0

>  <i_epik_Tot_abs_Q>  (205) 
0

>  <s_epik_Chemistry_Notes>  (205) 
This compound has an imine and may undergo hydrolysis.

>  <s_lp_Force_Field>  (205) 
OPLS3e

>  <r_lp_Energy>  (205) 
11.8665

>  <b_lp_Chiralities_Consistent>  (205) 
1

>  <s_lp_Variant>  (205) 
66:0-1

>  <s_i_glide_gridfile>  (205) 
pfpi4k_grid

>  <i_i_glide_lignum>  (205) 
12

>  <i_i_glide_rotatable_bonds>  (205) 
1

>  <r_i_docking_score>  (205) 
-2.9331

>  <r_i_glide_ligand_efficiency>  (205) 
-0.19554

>  <r_i_glide_ligand_efficiency_sa>  (205) 
-0.482244

>  <r_i_glide_ligand_efficiency_ln>  (205) 
-0.79101

>  <r_i_glide_gscore>  (205) 
-2.9331

>  <r_i_glide_lipo>  (205) 
-0.1022

>  <r_i_glide_hbond>  (205) 
-0.0351045

>  <r_i_glide_metal>  (205) 
-0

>  <r_i_glide_rewards>  (205) 
-1.92085

>  <r_i_glide_evdw>  (205) 
-15.9592

>  <r_i_glide_ecoul>  (205) 
-2.17321

>  <r_i_glide_erotb>  (205) 
0.35266

>  <r_i_glide_esite>  (205) 
-0.103672

>  <r_i_glide_emodel>  (205) 
-20.407

>  <r_i_glide_energy>  (205) 
-18.1324

>  <r_i_glide_einternal>  (205) 
2.75237

>  <r_i_glide_intrahb_reward>  (205) 
-0

>  <i_i_glide_confnum>  (205) 
1

>  <i_i_glide_posenum>  (205) 
1

>  <r_i_glide_eff_state_penalty>  (205) 
0

>  <ligand_id>  (205) 
66

>  <original_smiles>  (205) 
CN=C1NC(=O)C(=CC=C2C=CC=C2)S1

>  <smiles>  (205) 
[H]C1=C([H])C(=C([H])C([H])=C2SC(=NC([H])([H])[H])N([H])C2=O)C([H])=C1[H]

$$$$
66:0:2
     RDKit          3D

 25 26  0  0  1  0  0  0  0  0999 V2000
    3.0423    0.2442    1.5762 C   0  0  0  0  0  0  0  0  0  0  0  0
    1.6927    0.7587    1.6977 N   0  0  0  0  0  0  0  0  0  0  0  0
    1.1529    0.9879    2.8470 C   0  0  0  0  0  0  0  0  0  0  0  0
    1.7933    0.7885    4.0577 N   0  0  0  0  0  0  0  0  0  0  0  0
    1.1469    1.0599    5.2025 C   0  0  0  0  0  0  0  0  0  0  0  0
    1.6749    0.8976    6.2916 O   0  0  0  0  0  0  0  0  0  0  0  0
   -0.2185    1.5482    4.9440 C   0  0  0  0  0  0  0  0  0  0  0  0
   -1.1673    1.9237    5.8312 C   0  0  0  0  0  0  0  0  0  0  0  0
   -1.0799    1.9454    7.2817 C   0  0  0  0  0  0  0  0  0  0  0  0
   -2.0747    2.3485    8.0907 C   0  0  0  0  0  0  0  0  0  0  0  0
   -2.0184    2.3834    9.5326 C   0  0  0  0  0  0  0  0  0  0  0  0
   -3.1971    2.8398    9.9763 C   0  0  0  0  0  0  0  0  0  0  0  0
   -4.0479    3.1213    8.8399 C   0  0  0  0  0  0  0  0  0  0  0  0
   -3.3861    2.8317    7.7118 C   0  0  0  0  0  0  0  0  0  0  0  0
   -0.5075    1.5943    3.2130 S   0  0  0  0  0  0  0  0  0  0  0  0
    3.2737    0.1153    0.5168 H   0  0  0  0  0  0  0  0  0  0  0  0
    3.1572   -0.7341    2.0385 H   0  0  0  0  0  0  0  0  0  0  0  0
    3.7849    0.9315    1.9760 H   0  0  0  0  0  0  0  0  0  0  0  0
    2.7460    0.4468    4.0942 H   0  0  0  0  0  0  0  0  0  0  0  0
   -2.0976    2.2495    5.3818 H   0  0  0  0  0  0  0  0  0  0  0  0
   -0.1655    1.6263    7.7561 H   0  0  0  0  0  0  0  0  0  0  0  0
   -1.1815    2.0911   10.1550 H   0  0  0  0  0  0  0  0  0  0  0  0
   -3.4646    2.9689   11.0153 H   0  0  0  0  0  0  0  0  0  0  0  0
   -5.0565    3.5003    8.8969 H   0  0  0  0  0  0  0  0  0  0  0  0
   -3.7744    2.9431    6.7087 H   0  0  0  0  0  0  0  0  0  0  0  0
  1  2  1  0
  1 16  1  0
  1 17  1  0
  1 18  1  0
  2  3  2  3
  3 15  1  0
  3  4  1  0
  4  5  1  0
  4 19  1  0
  5  6  2  0
  5  7  1  0
  7  8  2  3
  7 15  1  0
  8  9  1  0
  8 20  1  0
  9 10  2  3
  9 21  1  0
 10 14  1  0
 10 11  1  0
 11 12  2  0
 11 22  1  0
 12 13  1  0
 12 23  1  0
 13 14  2  0
 13 24  1  0
 14 25  1  0
M  END
>  <i_m_ct_stereo_status>  (206) 
1

>  <s_m_source_file>  (206) 
/var/tmp/pbs.5076255.sched01/tmpi2d1958y/88otlks1nw.sdf

>  <i_m_source_file_index>  (206) 
12

>  <i_lp_mmshare_version>  (206) 
48012

>  <i_f3d_flags>  (206) 
0

>  <s_epik_input>  (206) 
W0NIM10vTj1DMVxbTkhdQyg9TykvQyhTMSk9W0NIXVxbQ0hdPUMyW0NIXT1bQ0hdW0NIXT1bQ0hdMg==

>  <s_epik_cmdline>  (206) 
J2VwaWtfcHl0aG9uJywgJy1waHQnLCAnMi4wJywgJy1waCcsICc3LjAnLCAnLXRuJywgJzgnLCAnLW1hJywgJzIwMCcsICctaW1hZScsICc8aW5maWxlLm1hZT4nLCAnLW9tYWUnLCAnPG91dGZpbGUubWFlPic=

>  <r_epik_Ionization_Penalty>  (206) 
0.161451

>  <r_epik_Ionization_Penalty_Charging>  (206) 
0

>  <r_epik_Ionization_Penalty_Neutral>  (206) 
0.161451

>  <r_epik_State_Penalty>  (206) 
0.33554

>  <r_epik_Charging_Adjusted_Penalty>  (206) 
0.33554

>  <i_epik_Tot_Q>  (206) 
0

>  <i_epik_Tot_abs_Q>  (206) 
0

>  <s_epik_Chemistry_Notes>  (206) 
This compound has an imine and may undergo hydrolysis.

>  <s_lp_Force_Field>  (206) 
OPLS3e

>  <r_lp_Energy>  (206) 
11.8665

>  <b_lp_Chiralities_Consistent>  (206) 
1

>  <s_lp_Variant>  (206) 
66:0-1

>  <s_i_glide_gridfile>  (206) 
pfpi4k_grid

>  <i_i_glide_lignum>  (206) 
12

>  <i_i_glide_rotatable_bonds>  (206) 
1

>  <r_i_docking_score>  (206) 
-2.82911

>  <r_i_glide_ligand_efficiency>  (206) 
-0.188607

>  <r_i_glide_ligand_efficiency_sa>  (206) 
-0.465146

>  <r_i_glide_ligand_efficiency_ln>  (206) 
-0.762964

>  <r_i_glide_gscore>  (206) 
-2.82911

>  <r_i_glide_lipo>  (206) 
-0.152241

>  <r_i_glide_hbond>  (206) 
0

>  <r_i_glide_metal>  (206) 
-0

>  <r_i_glide_rewards>  (206) 
-1.92085

>  <r_i_glide_evdw>  (206) 
-17.3707

>  <r_i_glide_ecoul>  (206) 
-1.38771

>  <r_i_glide_erotb>  (206) 
0.35266

>  <r_i_glide_esite>  (206) 
-0.031992

>  <r_i_glide_emodel>  (206) 
-22.3797

>  <r_i_glide_energy>  (206) 
-18.7584

>  <r_i_glide_einternal>  (206) 
0.000480328

>  <r_i_glide_intrahb_reward>  (206) 
-0

>  <i_i_glide_confnum>  (206) 
4

>  <i_i_glide_posenum>  (206) 
3

>  <r_i_glide_eff_state_penalty>  (206) 
0

>  <ligand_id>  (206) 
66

>  <original_smiles>  (206) 
CN=C1NC(=O)C(=CC=C2C=CC=C2)S1

>  <smiles>  (206) 
[H]C1=C([H])C(=C([H])C([H])=C2SC(=NC([H])([H])[H])N([H])C2=O)C([H])=C1[H]

$$$$
66:2:0
     RDKit          3D

 25 26  0  0  1  0  0  0  0  0999 V2000
    1.1461    1.0786    1.4988 C   0  0  0  0  0  0  0  0  0  0  0  0
    0.7849    0.8605    2.8959 N   0  0  0  0  0  0  0  0  0  0  0  0
   -0.1369    1.5489    3.4331 C   0  0  0  0  0  0  0  0  0  0  0  0
   -0.8041    2.6471    2.8777 N   0  0  0  0  0  0  0  0  0  0  0  0
   -1.6778    3.3118    3.6618 C   0  0  0  0  0  0  0  0  0  0  0  0
   -2.2896    4.2962    3.2863 O   0  0  0  0  0  0  0  0  0  0  0  0
   -1.7488    2.7263    4.9894 C   0  0  0  0  0  0  0  0  0  0  0  0
   -2.4539    3.2839    6.0261 C   0  0  0  0  0  0  0  0  0  0  0  0
   -2.4574    2.8097    7.3830 C   0  0  0  0  0  0  0  0  0  0  0  0
   -1.4087    2.3026    8.0819 C   0  0  0  0  0  0  0  0  0  0  0  0
   -1.4731    1.7480    9.4205 C   0  0  0  0  0  0  0  0  0  0  0  0
   -0.2556    1.2595    9.7199 C   0  0  0  0  0  0  0  0  0  0  0  0
    0.6433    1.5085    8.6167 C   0  0  0  0  0  0  0  0  0  0  0  0
   -0.0425    2.1699    7.6415 C   0  0  0  0  0  0  0  0  0  0  0  0
   -0.8156    1.2470    4.9854 S   0  0  0  0  0  0  0  0  0  0  0  0
    1.8930    0.3311    1.1742 H   0  0  0  0  0  0  0  0  0  0  0  0
    1.5668    2.0802    1.2984 H   0  0  0  0  0  0  0  0  0  0  0  0
    0.2626    0.9291    0.8634 H   0  0  0  0  0  0  0  0  0  0  0  0
   -0.6177    2.9798    1.9170 H   0  0  0  0  0  0  0  0  0  0  0  0
   -3.0094    4.1560    5.7969 H   0  0  0  0  0  0  0  0  0  0  0  0
   -3.4193    2.8434    7.8813 H   0  0  0  0  0  0  0  0  0  0  0  0
   -2.3396    1.7726   10.0946 H   0  0  0  0  0  0  0  0  0  0  0  0
    0.0323    0.8199   10.6963 H   0  0  0  0  0  0  0  0  0  0  0  0
    1.6596    1.1978    8.5498 H   0  0  0  0  0  0  0  0  0  0  0  0
    0.3810    2.4862    6.7126 H   0  0  0  0  0  0  0  0  0  0  0  0
  1  2  1  0
  1 16  1  0
  1 17  1  0
  1 18  1  0
  2  3  2  3
  3 15  1  0
  3  4  1  0
  4  5  1  0
  4 19  1  0
  5  6  2  0
  5  7  1  0
  7  8  2  3
  7 15  1  0
  8  9  1  0
  8 20  1  0
  9 10  2  3
  9 21  1  0
 10 14  1  0
 10 11  1  0
 11 12  2  0
 11 22  1  0
 12 13  1  0
 12 23  1  0
 13 14  2  0
 13 24  1  0
 14 25  1  0
M  END
>  <i_m_ct_stereo_status>  (207) 
1

>  <s_m_source_file>  (207) 
/var/tmp/pbs.5076255.sched01/tmpi2d1958y/88otlks1nw.sdf

>  <i_m_source_file_index>  (207) 
14

>  <i_lp_mmshare_version>  (207) 
48012

>  <i_f3d_flags>  (207) 
0

>  <s_epik_input>  (207) 
W0NIM10vTj1DMVxbTkhdQyg9TykvQyhTMSk9W0NIXVxbQ0hdPUMyW0NIXT1bQ0hdW0NIXT1bQ0hdMg==

>  <s_epik_cmdline>  (207) 
J2VwaWtfcHl0aG9uJywgJy1waHQnLCAnMi4wJywgJy1waCcsICc3LjAnLCAnLXRuJywgJzgnLCAnLW1hJywgJzIwMCcsICctaW1hZScsICc8aW5maWxlLm1hZT4nLCAnLW9tYWUnLCAnPG91dGZpbGUubWFlPic=

>  <r_epik_Ionization_Penalty>  (207) 
0.161451

>  <r_epik_Ionization_Penalty_Charging>  (207) 
0

>  <r_epik_Ionization_Penalty_Neutral>  (207) 
0.161451

>  <r_epik_State_Penalty>  (207) 
0.33554

>  <r_epik_Charging_Adjusted_Penalty>  (207) 
0.33554

>  <i_epik_Tot_Q>  (207) 
0

>  <i_epik_Tot_abs_Q>  (207) 
0

>  <s_epik_Chemistry_Notes>  (207) 
This compound has an imine and may undergo hydrolysis.

>  <s_lp_Force_Field>  (207) 
OPLS3e

>  <r_lp_Energy>  (207) 
9.01699

>  <b_lp_Chiralities_Consistent>  (207) 
1

>  <s_lp_Variant>  (207) 
66:0-3

>  <s_i_glide_gridfile>  (207) 
pfpi4k_grid

>  <i_i_glide_lignum>  (207) 
14

>  <i_i_glide_rotatable_bonds>  (207) 
1

>  <r_i_docking_score>  (207) 
-3.67883

>  <r_i_glide_ligand_efficiency>  (207) 
-0.245255

>  <r_i_glide_ligand_efficiency_sa>  (207) 
-0.604851

>  <r_i_glide_ligand_efficiency_ln>  (207) 
-0.992119

>  <r_i_glide_gscore>  (207) 
-3.67883

>  <r_i_glide_lipo>  (207) 
-0.187679

>  <r_i_glide_hbond>  (207) 
-0.285301

>  <r_i_glide_metal>  (207) 
-0

>  <r_i_glide_rewards>  (207) 
-1.92085

>  <r_i_glide_evdw>  (207) 
-15.6203

>  <r_i_glide_ecoul>  (207) 
-4.51379

>  <r_i_glide_erotb>  (207) 
0.35266

>  <r_i_glide_esite>  (207) 
-0.179577

>  <r_i_glide_emodel>  (207) 
-21.4129

>  <r_i_glide_energy>  (207) 
-20.1341

>  <r_i_glide_einternal>  (207) 
3.43084

>  <r_i_glide_intrahb_reward>  (207) 
-0

>  <i_i_glide_confnum>  (207) 
3

>  <i_i_glide_posenum>  (207) 
12

>  <r_i_glide_eff_state_penalty>  (207) 
0

>  <ligand_id>  (207) 
66

>  <original_smiles>  (207) 
CN=C1NC(=O)C(=CC=C2C=CC=C2)S1

>  <smiles>  (207) 
[H]C1=C([H])C(=C([H])C([H])=C2SC(=NC([H])([H])[H])N([H])C2=O)C([H])=C1[H]

$$$$
66:2:1
     RDKit          3D

 25 26  0  0  1  0  0  0  0  0999 V2000
    2.2066   -6.6019    2.0173 C   0  0  0  0  0  0  0  0  0  0  0  0
    1.6293   -5.8507    0.9108 N   0  0  0  0  0  0  0  0  0  0  0  0
    2.3401   -5.0154    0.2087 C   0  0  0  0  0  0  0  0  0  0  0  0
    3.7018   -4.8437    0.3828 N   0  0  0  0  0  0  0  0  0  0  0  0
    4.3506   -3.9926   -0.4351 C   0  0  0  0  0  0  0  0  0  0  0  0
    5.5596   -3.7574   -0.3214 O   0  0  0  0  0  0  0  0  0  0  0  0
    3.4523   -3.3922   -1.4247 C   0  0  0  0  0  0  0  0  0  0  0  0
    3.8104   -2.5179   -2.3662 C   0  0  0  0  0  0  0  0  0  0  0  0
    2.8798   -1.9922   -3.3505 C   0  0  0  0  0  0  0  0  0  0  0  0
    3.0293   -0.7948   -3.9276 C   0  0  0  0  0  0  0  0  0  0  0  0
    2.1596   -0.2034   -4.9171 C   0  0  0  0  0  0  0  0  0  0  0  0
    2.6163    1.0191   -5.1948 C   0  0  0  0  0  0  0  0  0  0  0  0
    3.7801    1.2605   -4.3782 C   0  0  0  0  0  0  0  0  0  0  0  0
    4.0256    0.1957   -3.6111 C   0  0  0  0  0  0  0  0  0  0  0  0
    1.8242   -3.8903   -1.1224 S   0  0  0  0  0  0  0  0  0  0  0  0
    1.4320   -7.2021    2.4893 H   0  0  0  0  0  0  0  0  0  0  0  0
    2.5985   -5.9522    2.7921 H   0  0  0  0  0  0  0  0  0  0  0  0
    2.9788   -7.2901    1.6966 H   0  0  0  0  0  0  0  0  0  0  0  0
    4.2153   -5.3080    1.1272 H   0  0  0  0  0  0  0  0  0  0  0  0
    4.8459   -2.2049   -2.4290 H   0  0  0  0  0  0  0  0  0  0  0  0
    2.0523   -2.6040   -3.6849 H   0  0  0  0  0  0  0  0  0  0  0  0
    1.2235   -0.6064   -5.2835 H   0  0  0  0  0  0  0  0  0  0  0  0
    2.0948    1.7256   -5.8140 H   0  0  0  0  0  0  0  0  0  0  0  0
    4.2209    2.2133   -4.2319 H   0  0  0  0  0  0  0  0  0  0  0  0
    4.7401    0.1476   -2.7993 H   0  0  0  0  0  0  0  0  0  0  0  0
  1  2  1  0
  1 16  1  0
  1 17  1  0
  1 18  1  0
  2  3  2  3
  3 15  1  0
  3  4  1  0
  4  5  1  0
  4 19  1  0
  5  6  2  0
  5  7  1  0
  7  8  2  3
  7 15  1  0
  8  9  1  0
  8 20  1  0
  9 10  2  3
  9 21  1  0
 10 14  1  0
 10 11  1  0
 11 12  2  0
 11 22  1  0
 12 13  1  0
 12 23  1  0
 13 14  2  0
 13 24  1  0
 14 25  1  0
M  END
>  <i_m_ct_stereo_status>  (208) 
1

>  <s_m_source_file>  (208) 
/var/tmp/pbs.5076255.sched01/tmpi2d1958y/88otlks1nw.sdf

>  <i_m_source_file_index>  (208) 
14

>  <i_lp_mmshare_version>  (208) 
48012

>  <i_f3d_flags>  (208) 
0

>  <s_epik_input>  (208) 
W0NIM10vTj1DMVxbTkhdQyg9TykvQyhTMSk9W0NIXVxbQ0hdPUMyW0NIXT1bQ0hdW0NIXT1bQ0hdMg==

>  <s_epik_cmdline>  (208) 
J2VwaWtfcHl0aG9uJywgJy1waHQnLCAnMi4wJywgJy1waCcsICc3LjAnLCAnLXRuJywgJzgnLCAnLW1hJywgJzIwMCcsICctaW1hZScsICc8aW5maWxlLm1hZT4nLCAnLW9tYWUnLCAnPG91dGZpbGUubWFlPic=

>  <r_epik_Ionization_Penalty>  (208) 
0.161451

>  <r_epik_Ionization_Penalty_Charging>  (208) 
0

>  <r_epik_Ionization_Penalty_Neutral>  (208) 
0.161451

>  <r_epik_State_Penalty>  (208) 
0.33554

>  <r_epik_Charging_Adjusted_Penalty>  (208) 
0.33554

>  <i_epik_Tot_Q>  (208) 
0

>  <i_epik_Tot_abs_Q>  (208) 
0

>  <s_epik_Chemistry_Notes>  (208) 
This compound has an imine and may undergo hydrolysis.

>  <s_lp_Force_Field>  (208) 
OPLS3e

>  <r_lp_Energy>  (208) 
9.01699

>  <b_lp_Chiralities_Consistent>  (208) 
1

>  <s_lp_Variant>  (208) 
66:0-3

>  <s_i_glide_gridfile>  (208) 
pfpi4k_grid

>  <i_i_glide_lignum>  (208) 
14

>  <i_i_glide_rotatable_bonds>  (208) 
1

>  <r_i_docking_score>  (208) 
-3.06932

>  <r_i_glide_ligand_efficiency>  (208) 
-0.204621

>  <r_i_glide_ligand_efficiency_sa>  (208) 
-0.504639

>  <r_i_glide_ligand_efficiency_ln>  (208) 
-0.827745

>  <r_i_glide_gscore>  (208) 
-3.06932

>  <r_i_glide_lipo>  (208) 
-0.373107

>  <r_i_glide_hbond>  (208) 
-0.121953

>  <r_i_glide_metal>  (208) 
-0

>  <r_i_glide_rewards>  (208) 
-1.92085

>  <r_i_glide_evdw>  (208) 
-11.4592

>  <r_i_glide_ecoul>  (208) 
-2.44626

>  <r_i_glide_erotb>  (208) 
0.35266

>  <r_i_glide_esite>  (208) 
-0.0661762

>  <r_i_glide_emodel>  (208) 
-16.3815

>  <r_i_glide_energy>  (208) 
-13.9054

>  <r_i_glide_einternal>  (208) 
2.87723

>  <r_i_glide_intrahb_reward>  (208) 
-0

>  <i_i_glide_confnum>  (208) 
1

>  <i_i_glide_posenum>  (208) 
15

>  <r_i_glide_eff_state_penalty>  (208) 
0

>  <ligand_id>  (208) 
66

>  <original_smiles>  (208) 
CN=C1NC(=O)C(=CC=C2C=CC=C2)S1

>  <smiles>  (208) 
[H]C1=C([H])C(=C([H])C([H])=C2SC(=NC([H])([H])[H])N([H])C2=O)C([H])=C1[H]

$$$$
66:2:2
     RDKit          3D

 25 26  0  0  1  0  0  0  0  0999 V2000
    4.3705   -4.7103    4.5314 C   0  0  0  0  0  0  0  0  0  0  0  0
    3.6994   -4.6814    3.2488 N   0  0  0  0  0  0  0  0  0  0  0  0
    4.0098   -3.8114    2.3376 C   0  0  0  0  0  0  0  0  0  0  0  0
    4.9857   -2.8442    2.5032 N   0  0  0  0  0  0  0  0  0  0  0  0
    5.2225   -1.9905    1.4962 C   0  0  0  0  0  0  0  0  0  0  0  0
    6.0781   -1.1032    1.5722 O   0  0  0  0  0  0  0  0  0  0  0  0
    4.3738   -2.2486    0.3433 C   0  0  0  0  0  0  0  0  0  0  0  0
    4.3897   -1.5328   -0.7973 C   0  0  0  0  0  0  0  0  0  0  0  0
    3.5237   -1.8203   -1.9314 C   0  0  0  0  0  0  0  0  0  0  0  0
    3.4682   -1.0735   -3.0450 C   0  0  0  0  0  0  0  0  0  0  0  0
    2.6221   -1.3221   -4.1812 C   0  0  0  0  0  0  0  0  0  0  0  0
    2.8416   -0.3377   -5.0616 C   0  0  0  0  0  0  0  0  0  0  0  0
    3.8337    0.5553   -4.5406 C   0  0  0  0  0  0  0  0  0  0  0  0
    4.2118    0.1198   -3.3372 C   0  0  0  0  0  0  0  0  0  0  0  0
    3.3112   -3.6133    0.6842 S   0  0  0  0  0  0  0  0  0  0  0  0
    3.9536   -5.5195    5.1287 H   0  0  0  0  0  0  0  0  0  0  0  0
    4.2187   -3.7968    5.1007 H   0  0  0  0  0  0  0  0  0  0  0  0
    5.4372   -4.9161    4.4436 H   0  0  0  0  0  0  0  0  0  0  0  0
    5.5140   -2.7644    3.3580 H   0  0  0  0  0  0  0  0  0  0  0  0
    5.0847   -0.7100   -0.8696 H   0  0  0  0  0  0  0  0  0  0  0  0
    2.8659   -2.6796   -1.8983 H   0  0  0  0  0  0  0  0  0  0  0  0
    1.9295   -2.1441   -4.3029 H   0  0  0  0  0  0  0  0  0  0  0  0
    2.3680   -0.2327   -6.0164 H   0  0  0  0  0  0  0  0  0  0  0  0
    4.2103    1.4147   -5.0522 H   0  0  0  0  0  0  0  0  0  0  0  0
    4.9619    0.5719   -2.7208 H   0  0  0  0  0  0  0  0  0  0  0  0
  1  2  1  0
  1 16  1  0
  1 17  1  0
  1 18  1  0
  2  3  2  3
  3 15  1  0
  3  4  1  0
  4  5  1  0
  4 19  1  0
  5  6  2  0
  5  7  1  0
  7  8  2  3
  7 15  1  0
  8  9  1  0
  8 20  1  0
  9 10  2  3
  9 21  1  0
 10 14  1  0
 10 11  1  0
 11 12  2  0
 11 22  1  0
 12 13  1  0
 12 23  1  0
 13 14  2  0
 13 24  1  0
 14 25  1  0
M  END
>  <i_m_ct_stereo_status>  (209) 
1

>  <s_m_source_file>  (209) 
/var/tmp/pbs.5076255.sched01/tmpi2d1958y/88otlks1nw.sdf

>  <i_m_source_file_index>  (209) 
14

>  <i_lp_mmshare_version>  (209) 
48012

>  <i_f3d_flags>  (209) 
0

>  <s_epik_input>  (209) 
W0NIM10vTj1DMVxbTkhdQyg9TykvQyhTMSk9W0NIXVxbQ0hdPUMyW0NIXT1bQ0hdW0NIXT1bQ0hdMg==

>  <s_epik_cmdline>  (209) 
J2VwaWtfcHl0aG9uJywgJy1waHQnLCAnMi4wJywgJy1waCcsICc3LjAnLCAnLXRuJywgJzgnLCAnLW1hJywgJzIwMCcsICctaW1hZScsICc8aW5maWxlLm1hZT4nLCAnLW9tYWUnLCAnPG91dGZpbGUubWFlPic=

>  <r_epik_Ionization_Penalty>  (209) 
0.161451

>  <r_epik_Ionization_Penalty_Charging>  (209) 
0

>  <r_epik_Ionization_Penalty_Neutral>  (209) 
0.161451

>  <r_epik_State_Penalty>  (209) 
0.33554

>  <r_epik_Charging_Adjusted_Penalty>  (209) 
0.33554

>  <i_epik_Tot_Q>  (209) 
0

>  <i_epik_Tot_abs_Q>  (209) 
0

>  <s_epik_Chemistry_Notes>  (209) 
This compound has an imine and may undergo hydrolysis.

>  <s_lp_Force_Field>  (209) 
OPLS3e

>  <r_lp_Energy>  (209) 
9.01699

>  <b_lp_Chiralities_Consistent>  (209) 
1

>  <s_lp_Variant>  (209) 
66:0-3

>  <s_i_glide_gridfile>  (209) 
pfpi4k_grid

>  <i_i_glide_lignum>  (209) 
14

>  <i_i_glide_rotatable_bonds>  (209) 
1

>  <r_i_docking_score>  (209) 
-2.7902

>  <r_i_glide_ligand_efficiency>  (209) 
-0.186014

>  <r_i_glide_ligand_efficiency_sa>  (209) 
-0.458749

>  <r_i_glide_ligand_efficiency_ln>  (209) 
-0.752472

>  <r_i_glide_gscore>  (209) 
-2.7902

>  <r_i_glide_lipo>  (209) 
-0.277353

>  <r_i_glide_hbond>  (209) 
0

>  <r_i_glide_metal>  (209) 
-0

>  <r_i_glide_rewards>  (209) 
-2.01823

>  <r_i_glide_evdw>  (209) 
-16.2055

>  <r_i_glide_ecoul>  (209) 
-0.246671

>  <r_i_glide_erotb>  (209) 
0.35266

>  <r_i_glide_esite>  (209) 
0

>  <r_i_glide_emodel>  (209) 
-20.5221

>  <r_i_glide_energy>  (209) 
-16.4522

>  <r_i_glide_einternal>  (209) 
0.096217

>  <r_i_glide_intrahb_reward>  (209) 
-0

>  <i_i_glide_confnum>  (209) 
4

>  <i_i_glide_posenum>  (209) 
5

>  <r_i_glide_eff_state_penalty>  (209) 
0

>  <ligand_id>  (209) 
66

>  <original_smiles>  (209) 
CN=C1NC(=O)C(=CC=C2C=CC=C2)S1

>  <smiles>  (209) 
[H]C1=C([H])C(=C([H])C([H])=C2SC(=NC([H])([H])[H])N([H])C2=O)C([H])=C1[H]

$$$$
66:3:0
     RDKit          3D

 25 26  0  0  1  0  0  0  0  0999 V2000
    2.9469    0.7323    2.1837 C   0  0  0  0  0  0  0  0  0  0  0  0
    4.0738   -0.0831    2.6150 N   0  0  0  0  0  0  0  0  0  0  0  0
    4.4488   -0.9995    1.7813 C   0  0  0  0  0  0  0  0  0  0  0  0
    5.5316   -1.8204    2.0450 N   0  0  0  0  0  0  0  0  0  0  0  0
    5.9189   -2.6983    1.1128 C   0  0  0  0  0  0  0  0  0  0  0  0
    6.8808   -3.4528    1.2676 O   0  0  0  0  0  0  0  0  0  0  0  0
    5.0897   -2.6245   -0.0705 C   0  0  0  0  0  0  0  0  0  0  0  0
    5.3347   -3.3408   -1.1901 C   0  0  0  0  0  0  0  0  0  0  0  0
    4.5875   -3.2538   -2.4273 C   0  0  0  0  0  0  0  0  0  0  0  0
    4.2532   -2.1092   -3.0711 C   0  0  0  0  0  0  0  0  0  0  0  0
    3.4473   -2.0242   -4.2690 C   0  0  0  0  0  0  0  0  0  0  0  0
    3.2967   -0.7232   -4.5885 C   0  0  0  0  0  0  0  0  0  0  0  0
    4.0015    0.0689   -3.6020 C   0  0  0  0  0  0  0  0  0  0  0  0
    4.5847   -0.7497   -2.7112 C   0  0  0  0  0  0  0  0  0  0  0  0
    3.8004   -1.4542    0.2041 S   0  0  0  0  0  0  0  0  0  0  0  0
    2.6593    1.4283    2.9799 H   0  0  0  0  0  0  0  0  0  0  0  0
    2.0779    0.1095    1.9551 H   0  0  0  0  0  0  0  0  0  0  0  0
    3.2139    1.3174    1.3012 H   0  0  0  0  0  0  0  0  0  0  0  0
    6.0177   -1.7519    2.9169 H   0  0  0  0  0  0  0  0  0  0  0  0
    6.1685   -4.0341   -1.1788 H   0  0  0  0  0  0  0  0  0  0  0  0
    4.2241   -4.1808   -2.8499 H   0  0  0  0  0  0  0  0  0  0  0  0
    3.0173   -2.8583   -4.7998 H   0  0  0  0  0  0  0  0  0  0  0  0
    2.7294   -0.3275   -5.4310 H   0  0  0  0  0  0  0  0  0  0  0  0
    4.0174    1.1498   -3.5659 H   0  0  0  0  0  0  0  0  0  0  0  0
    5.1695   -0.4346   -1.8521 H   0  0  0  0  0  0  0  0  0  0  0  0
  1  2  1  0
  1 16  1  0
  1 17  1  0
  1 18  1  0
  2  3  2  3
  3 15  1  0
  3  4  1  0
  4  5  1  0
  4 19  1  0
  5  6  2  0
  5  7  1  0
  7  8  2  3
  7 15  1  0
  8  9  1  0
  8 20  1  0
  9 10  2  3
  9 21  1  0
 10 14  1  0
 10 11  1  0
 11 12  2  0
 11 22  1  0
 12 13  1  0
 12 23  1  0
 13 14  2  0
 13 24  1  0
 14 25  1  0
M  END
>  <i_m_ct_stereo_status>  (210) 
1

>  <s_m_source_file>  (210) 
/var/tmp/pbs.5076255.sched01/tmpi2d1958y/88otlks1nw.sdf

>  <i_m_source_file_index>  (210) 
15

>  <i_lp_mmshare_version>  (210) 
48012

>  <i_f3d_flags>  (210) 
0

>  <s_epik_input>  (210) 
W0NIM10vTj1DMVxbTkhdQyg9TykvQyhTMSk9W0NIXVxbQ0hdPUMyW0NIXT1bQ0hdW0NIXT1bQ0hdMg==

>  <s_epik_cmdline>  (210) 
J2VwaWtfcHl0aG9uJywgJy1waHQnLCAnMi4wJywgJy1waCcsICc3LjAnLCAnLXRuJywgJzgnLCAnLW1hJywgJzIwMCcsICctaW1hZScsICc8aW5maWxlLm1hZT4nLCAnLW9tYWUnLCAnPG91dGZpbGUubWFlPic=

>  <r_epik_Ionization_Penalty>  (210) 
0.161451

>  <r_epik_Ionization_Penalty_Charging>  (210) 
0

>  <r_epik_Ionization_Penalty_Neutral>  (210) 
0.161451

>  <r_epik_State_Penalty>  (210) 
0.33554

>  <r_epik_Charging_Adjusted_Penalty>  (210) 
0.33554

>  <i_epik_Tot_Q>  (210) 
0

>  <i_epik_Tot_abs_Q>  (210) 
0

>  <s_epik_Chemistry_Notes>  (210) 
This compound has an imine and may undergo hydrolysis.

>  <s_lp_Force_Field>  (210) 
OPLS3e

>  <r_lp_Energy>  (210) 
10.1182

>  <b_lp_Chiralities_Consistent>  (210) 
1

>  <s_lp_Variant>  (210) 
66:0-4

>  <s_i_glide_gridfile>  (210) 
pfpi4k_grid

>  <i_i_glide_lignum>  (210) 
15

>  <i_i_glide_rotatable_bonds>  (210) 
1

>  <r_i_docking_score>  (210) 
-3.59039

>  <r_i_glide_ligand_efficiency>  (210) 
-0.239359

>  <r_i_glide_ligand_efficiency_sa>  (210) 
-0.59031

>  <r_i_glide_ligand_efficiency_ln>  (210) 
-0.968268

>  <r_i_glide_gscore>  (210) 
-3.59039

>  <r_i_glide_lipo>  (210) 
-0.527515

>  <r_i_glide_hbond>  (210) 
0

>  <r_i_glide_metal>  (210) 
-0

>  <r_i_glide_rewards>  (210) 
-2.11735

>  <r_i_glide_evdw>  (210) 
-20.991

>  <r_i_glide_ecoul>  (210) 
-1.65751

>  <r_i_glide_erotb>  (210) 
0.35266

>  <r_i_glide_esite>  (210) 
0

>  <r_i_glide_emodel>  (210) 
-25.4403

>  <r_i_glide_energy>  (210) 
-22.6485

>  <r_i_glide_einternal>  (210) 
3.66993

>  <r_i_glide_intrahb_reward>  (210) 
-0

>  <i_i_glide_confnum>  (210) 
2

>  <i_i_glide_posenum>  (210) 
19

>  <r_i_glide_eff_state_penalty>  (210) 
0

>  <ligand_id>  (210) 
66

>  <original_smiles>  (210) 
CN=C1NC(=O)C(=CC=C2C=CC=C2)S1

>  <smiles>  (210) 
[H]C1=C([H])C(=C([H])C([H])=C2SC(=NC([H])([H])[H])N([H])C2=O)C([H])=C1[H]

$$$$
66:3:1
     RDKit          3D

 25 26  0  0  1  0  0  0  0  0999 V2000
    4.8304   -7.5512    1.3425 C   0  0  0  0  0  0  0  0  0  0  0  0
    5.8395   -6.5523    1.6312 N   0  0  0  0  0  0  0  0  0  0  0  0
    5.7597   -5.4594    0.9513 C   0  0  0  0  0  0  0  0  0  0  0  0
    6.6788   -4.4536    1.1346 N   0  0  0  0  0  0  0  0  0  0  0  0
    6.5935   -3.3510    0.3772 C   0  0  0  0  0  0  0  0  0  0  0  0
    7.3856   -2.4145    0.4803 O   0  0  0  0  0  0  0  0  0  0  0  0
    5.4749   -3.4118   -0.5510 C   0  0  0  0  0  0  0  0  0  0  0  0
    5.1691   -2.4285   -1.4227 C   0  0  0  0  0  0  0  0  0  0  0  0
    4.0691   -2.4992   -2.3733 C   0  0  0  0  0  0  0  0  0  0  0  0
    3.6870   -1.4877   -3.1731 C   0  0  0  0  0  0  0  0  0  0  0  0
    2.6171   -1.5351   -4.1345 C   0  0  0  0  0  0  0  0  0  0  0  0
    2.5512   -0.3308   -4.7263 C   0  0  0  0  0  0  0  0  0  0  0  0
    3.5673    0.5298   -4.1746 C   0  0  0  0  0  0  0  0  0  0  0  0
    4.2284   -0.1540   -3.2335 C   0  0  0  0  0  0  0  0  0  0  0  0
    4.5980   -4.9181   -0.3041 S   0  0  0  0  0  0  0  0  0  0  0  0
    4.9443   -8.4341    1.9783 H   0  0  0  0  0  0  0  0  0  0  0  0
    4.8979   -7.8899    0.3074 H   0  0  0  0  0  0  0  0  0  0  0  0
    3.8216   -7.1661    1.5071 H   0  0  0  0  0  0  0  0  0  0  0  0
    7.3975   -4.5455    1.8369 H   0  0  0  0  0  0  0  0  0  0  0  0
    5.7875   -1.5421   -1.4170 H   0  0  0  0  0  0  0  0  0  0  0  0
    3.5264   -3.4292   -2.4726 H   0  0  0  0  0  0  0  0  0  0  0  0
    1.9616   -2.3740   -4.3189 H   0  0  0  0  0  0  0  0  0  0  0  0
    1.8222   -0.0418   -5.4685 H   0  0  0  0  0  0  0  0  0  0  0  0
    3.7314    1.5653   -4.4389 H   0  0  0  0  0  0  0  0  0  0  0  0
    5.0197    0.2383   -2.6201 H   0  0  0  0  0  0  0  0  0  0  0  0
  1  2  1  0
  1 16  1  0
  1 17  1  0
  1 18  1  0
  2  3  2  3
  3 15  1  0
  3  4  1  0
  4  5  1  0
  4 19  1  0
  5  6  2  0
  5  7  1  0
  7  8  2  3
  7 15  1  0
  8  9  1  0
  8 20  1  0
  9 10  2  3
  9 21  1  0
 10 14  1  0
 10 11  1  0
 11 12  2  0
 11 22  1  0
 12 13  1  0
 12 23  1  0
 13 14  2  0
 13 24  1  0
 14 25  1  0
M  END
>  <i_m_ct_stereo_status>  (211) 
1

>  <s_m_source_file>  (211) 
/var/tmp/pbs.5076255.sched01/tmpi2d1958y/88otlks1nw.sdf

>  <i_m_source_file_index>  (211) 
15

>  <i_lp_mmshare_version>  (211) 
48012

>  <i_f3d_flags>  (211) 
0

>  <s_epik_input>  (211) 
W0NIM10vTj1DMVxbTkhdQyg9TykvQyhTMSk9W0NIXVxbQ0hdPUMyW0NIXT1bQ0hdW0NIXT1bQ0hdMg==

>  <s_epik_cmdline>  (211) 
J2VwaWtfcHl0aG9uJywgJy1waHQnLCAnMi4wJywgJy1waCcsICc3LjAnLCAnLXRuJywgJzgnLCAnLW1hJywgJzIwMCcsICctaW1hZScsICc8aW5maWxlLm1hZT4nLCAnLW9tYWUnLCAnPG91dGZpbGUubWFlPic=

>  <r_epik_Ionization_Penalty>  (211) 
0.161451

>  <r_epik_Ionization_Penalty_Charging>  (211) 
0

>  <r_epik_Ionization_Penalty_Neutral>  (211) 
0.161451

>  <r_epik_State_Penalty>  (211) 
0.33554

>  <r_epik_Charging_Adjusted_Penalty>  (211) 
0.33554

>  <i_epik_Tot_Q>  (211) 
0

>  <i_epik_Tot_abs_Q>  (211) 
0

>  <s_epik_Chemistry_Notes>  (211) 
This compound has an imine and may undergo hydrolysis.

>  <s_lp_Force_Field>  (211) 
OPLS3e

>  <r_lp_Energy>  (211) 
10.1182

>  <b_lp_Chiralities_Consistent>  (211) 
1

>  <s_lp_Variant>  (211) 
66:0-4

>  <s_i_glide_gridfile>  (211) 
pfpi4k_grid

>  <i_i_glide_lignum>  (211) 
15

>  <i_i_glide_rotatable_bonds>  (211) 
1

>  <r_i_docking_score>  (211) 
-3.52639

>  <r_i_glide_ligand_efficiency>  (211) 
-0.235093

>  <r_i_glide_ligand_efficiency_sa>  (211) 
-0.579789

>  <r_i_glide_ligand_efficiency_ln>  (211) 
-0.95101

>  <r_i_glide_gscore>  (211) 
-3.52639

>  <r_i_glide_lipo>  (211) 
-0.521477

>  <r_i_glide_hbond>  (211) 
0

>  <r_i_glide_metal>  (211) 
-0

>  <r_i_glide_rewards>  (211) 
-2.18516

>  <r_i_glide_evdw>  (211) 
-19.9628

>  <r_i_glide_ecoul>  (211) 
-1.16188

>  <r_i_glide_erotb>  (211) 
0.35266

>  <r_i_glide_esite>  (211) 
0

>  <r_i_glide_emodel>  (211) 
-25.8754

>  <r_i_glide_energy>  (211) 
-21.1247

>  <r_i_glide_einternal>  (211) 
0.127753

>  <r_i_glide_intrahb_reward>  (211) 
-0

>  <i_i_glide_confnum>  (211) 
4

>  <i_i_glide_posenum>  (211) 
31

>  <r_i_glide_eff_state_penalty>  (211) 
0

>  <ligand_id>  (211) 
66

>  <original_smiles>  (211) 
CN=C1NC(=O)C(=CC=C2C=CC=C2)S1

>  <smiles>  (211) 
[H]C1=C([H])C(=C([H])C([H])=C2SC(=NC([H])([H])[H])N([H])C2=O)C([H])=C1[H]

$$$$
66:3:2
     RDKit          3D

 25 26  0  0  1  0  0  0  0  0999 V2000
    3.2896    0.5031    2.5304 C   0  0  0  0  0  0  0  0  0  0  0  0
    2.0891    0.9437    1.8507 N   0  0  0  0  0  0  0  0  0  0  0  0
    1.1074    1.2869    2.6157 C   0  0  0  0  0  0  0  0  0  0  0  0
   -0.0791    1.7216    2.0782 N   0  0  0  0  0  0  0  0  0  0  0  0
   -1.0747    2.0948    2.8912 C   0  0  0  0  0  0  0  0  0  0  0  0
   -2.1489    2.5287    2.4802 O   0  0  0  0  0  0  0  0  0  0  0  0
   -0.7148    1.9250    4.2906 C   0  0  0  0  0  0  0  0  0  0  0  0
   -1.5483    2.2044    5.3118 C   0  0  0  0  0  0  0  0  0  0  0  0
   -1.1908    2.0446    6.7119 C   0  0  0  0  0  0  0  0  0  0  0  0
   -2.0078    2.3133    7.7429 C   0  0  0  0  0  0  0  0  0  0  0  0
   -1.6761    2.1707    9.1395 C   0  0  0  0  0  0  0  0  0  0  0  0
   -2.7470    2.5485    9.8526 C   0  0  0  0  0  0  0  0  0  0  0  0
   -3.8021    2.9451    8.9452 C   0  0  0  0  0  0  0  0  0  0  0  0
   -3.3659    2.7923    7.6848 C   0  0  0  0  0  0  0  0  0  0  0  0
    0.9392    1.3228    4.4081 S   0  0  0  0  0  0  0  0  0  0  0  0
    4.0702    0.2357    1.8129 H   0  0  0  0  0  0  0  0  0  0  0  0
    3.0947   -0.3812    3.1422 H   0  0  0  0  0  0  0  0  0  0  0  0
    3.6958    1.2862    3.1766 H   0  0  0  0  0  0  0  0  0  0  0  0
   -0.1819    1.8143    1.0760 H   0  0  0  0  0  0  0  0  0  0  0  0
   -2.5359    2.5714    5.0654 H   0  0  0  0  0  0  0  0  0  0  0  0
   -0.1984    1.6930    6.9569 H   0  0  0  0  0  0  0  0  0  0  0  0
   -0.7355    1.8263    9.5445 H   0  0  0  0  0  0  0  0  0  0  0  0
   -2.8133    2.5467   10.9313 H   0  0  0  0  0  0  0  0  0  0  0  0
   -4.7830    3.2882    9.2440 H   0  0  0  0  0  0  0  0  0  0  0  0
   -3.9292    2.9666    6.7828 H   0  0  0  0  0  0  0  0  0  0  0  0
  1  2  1  0
  1 16  1  0
  1 17  1  0
  1 18  1  0
  2  3  2  3
  3 15  1  0
  3  4  1  0
  4  5  1  0
  4 19  1  0
  5  6  2  0
  5  7  1  0
  7  8  2  3
  7 15  1  0
  8  9  1  0
  8 20  1  0
  9 10  2  3
  9 21  1  0
 10 14  1  0
 10 11  1  0
 11 12  2  0
 11 22  1  0
 12 13  1  0
 12 23  1  0
 13 14  2  0
 13 24  1  0
 14 25  1  0
M  END
>  <i_m_ct_stereo_status>  (212) 
1

>  <s_m_source_file>  (212) 
/var/tmp/pbs.5076255.sched01/tmpi2d1958y/88otlks1nw.sdf

>  <i_m_source_file_index>  (212) 
15

>  <i_lp_mmshare_version>  (212) 
48012

>  <i_f3d_flags>  (212) 
0

>  <s_epik_input>  (212) 
W0NIM10vTj1DMVxbTkhdQyg9TykvQyhTMSk9W0NIXVxbQ0hdPUMyW0NIXT1bQ0hdW0NIXT1bQ0hdMg==

>  <s_epik_cmdline>  (212) 
J2VwaWtfcHl0aG9uJywgJy1waHQnLCAnMi4wJywgJy1waCcsICc3LjAnLCAnLXRuJywgJzgnLCAnLW1hJywgJzIwMCcsICctaW1hZScsICc8aW5maWxlLm1hZT4nLCAnLW9tYWUnLCAnPG91dGZpbGUubWFlPic=

>  <r_epik_Ionization_Penalty>  (212) 
0.161451

>  <r_epik_Ionization_Penalty_Charging>  (212) 
0

>  <r_epik_Ionization_Penalty_Neutral>  (212) 
0.161451

>  <r_epik_State_Penalty>  (212) 
0.33554

>  <r_epik_Charging_Adjusted_Penalty>  (212) 
0.33554

>  <i_epik_Tot_Q>  (212) 
0

>  <i_epik_Tot_abs_Q>  (212) 
0

>  <s_epik_Chemistry_Notes>  (212) 
This compound has an imine and may undergo hydrolysis.

>  <s_lp_Force_Field>  (212) 
OPLS3e

>  <r_lp_Energy>  (212) 
10.1182

>  <b_lp_Chiralities_Consistent>  (212) 
1

>  <s_lp_Variant>  (212) 
66:0-4

>  <s_i_glide_gridfile>  (212) 
pfpi4k_grid

>  <i_i_glide_lignum>  (212) 
15

>  <i_i_glide_rotatable_bonds>  (212) 
1

>  <r_i_docking_score>  (212) 
-3.08567

>  <r_i_glide_ligand_efficiency>  (212) 
-0.205711

>  <r_i_glide_ligand_efficiency_sa>  (212) 
-0.507327

>  <r_i_glide_ligand_efficiency_ln>  (212) 
-0.832153

>  <r_i_glide_gscore>  (212) 
-3.08567

>  <r_i_glide_lipo>  (212) 
-0.159827

>  <r_i_glide_hbond>  (212) 
0

>  <r_i_glide_metal>  (212) 
-0

>  <r_i_glide_rewards>  (212) 
-1.92085

>  <r_i_glide_evdw>  (212) 
-18.7109

>  <r_i_glide_ecoul>  (212) 
-1.6841

>  <r_i_glide_erotb>  (212) 
0.35266

>  <r_i_glide_esite>  (212) 
-0.169493

>  <r_i_glide_emodel>  (212) 
-24.6271

>  <r_i_glide_energy>  (212) 
-20.395

>  <r_i_glide_einternal>  (212) 
0.000340672

>  <r_i_glide_intrahb_reward>  (212) 
-0

>  <i_i_glide_confnum>  (212) 
1

>  <i_i_glide_posenum>  (212) 
5

>  <r_i_glide_eff_state_penalty>  (212) 
0

>  <ligand_id>  (212) 
66

>  <original_smiles>  (212) 
CN=C1NC(=O)C(=CC=C2C=CC=C2)S1

>  <smiles>  (212) 
[H]C1=C([H])C(=C([H])C([H])=C2SC(=NC([H])([H])[H])N([H])C2=O)C([H])=C1[H]

$$$$
66:5:0
     RDKit          3D

 25 26  0  0  1  0  0  0  0  0999 V2000
    2.8566    5.3471    3.3777 C   0  0  0  0  0  0  0  0  0  0  0  0
    3.0050    3.9764    2.9177 N   0  0  0  0  0  0  0  0  0  0  0  0
    2.0261    2.9942    2.9503 C   0  0  0  0  0  0  0  0  0  0  0  0
    2.1257    1.8604    2.3579 N   0  0  0  0  0  0  0  0  0  0  0  0
    0.9843    1.1118    2.5930 C   0  0  0  0  0  0  0  0  0  0  0  0
    0.8249   -0.0164    2.1264 O   0  0  0  0  0  0  0  0  0  0  0  0
   -0.0014    1.7627    3.4637 C   0  0  0  0  0  0  0  0  0  0  0  0
   -1.1682    1.1888    3.8127 C   0  0  0  0  0  0  0  0  0  0  0  0
   -2.1693    1.7925    4.6682 C   0  0  0  0  0  0  0  0  0  0  0  0
   -2.0675    1.9382    6.0026 C   0  0  0  0  0  0  0  0  0  0  0  0
   -3.0566    2.5402    6.8645 C   0  0  0  0  0  0  0  0  0  0  0  0
   -2.5944    2.4926    8.1230 C   0  0  0  0  0  0  0  0  0  0  0  0
   -1.2953    1.8548    8.1166 C   0  0  0  0  0  0  0  0  0  0  0  0
   -0.9798    1.5193    6.8553 C   0  0  0  0  0  0  0  0  0  0  0  0
    0.5686    3.3671    3.9083 S   0  0  0  0  0  0  0  0  0  0  0  0
    3.7729    5.9070    3.1931 H   0  0  0  0  0  0  0  0  0  0  0  0
    2.6559    5.3698    4.4489 H   0  0  0  0  0  0  0  0  0  0  0  0
    2.0406    5.8534    2.8584 H   0  0  0  0  0  0  0  0  0  0  0  0
   -1.3980    0.2034    3.4328 H   0  0  0  0  0  0  0  0  0  0  0  0
   -3.0529    2.1521    4.1664 H   0  0  0  0  0  0  0  0  0  0  0  0
   -4.0081    2.9445    6.5540 H   0  0  0  0  0  0  0  0  0  0  0  0
   -3.1101    2.8625    9.0004 H   0  0  0  0  0  0  0  0  0  0  0  0
   -0.6775    1.6901    8.9891 H   0  0  0  0  0  0  0  0  0  0  0  0
   -0.0663    1.0396    6.5334 H   0  0  0  0  0  0  0  0  0  0  0  0
    3.8899    3.7665    2.4623 H   0  0  0  0  0  0  0  0  0  0  0  0
  1  2  1  0
  1 16  1  0
  1 17  1  0
  1 18  1  0
  2  3  1  0
  2 25  1  0
  3 15  1  0
  3  4  2  0
  4  5  1  0
  5  6  2  0
  5  7  1  0
  7  8  2  3
  7 15  1  0
  8  9  1  0
  8 19  1  0
  9 10  2  3
  9 20  1  0
 10 14  1  0
 10 11  1  0
 11 12  2  0
 11 21  1  0
 12 13  1  0
 12 22  1  0
 13 14  2  0
 13 23  1  0
 14 24  1  0
M  END
>  <i_m_ct_stereo_status>  (213) 
1

>  <s_m_source_file>  (213) 
/var/tmp/pbs.5076255.sched01/tmpi2d1958y/88otlks1nw.sdf

>  <i_m_source_file_index>  (213) 
17

>  <i_lp_mmshare_version>  (213) 
48012

>  <i_f3d_flags>  (213) 
0

>  <s_epik_input>  (213) 
W0NIM10vTj1DMVxbTkhdQyg9TykvQyhTMSk9W0NIXVxbQ0hdPUMyW0NIXT1bQ0hdW0NIXT1bQ0hdMg==

>  <s_epik_cmdline>  (213) 
J2VwaWtfcHl0aG9uJywgJy1waHQnLCAnMi4wJywgJy1waCcsICc3LjAnLCAnLXRuJywgJzgnLCAnLW1hJywgJzIwMCcsICctaW1hZScsICc8aW5maWxlLm1hZT4nLCAnLW9tYWUnLCAnPG91dGZpbGUubWFlPic=

>  <r_epik_Ionization_Penalty>  (213) 
2.60903e-06

>  <r_epik_Ionization_Penalty_Charging>  (213) 
0

>  <r_epik_Ionization_Penalty_Neutral>  (213) 
2.60903e-06

>  <r_epik_State_Penalty>  (213) 
0.780036

>  <r_epik_Charging_Adjusted_Penalty>  (213) 
0.780036

>  <i_epik_Tot_Q>  (213) 
0

>  <i_epik_Tot_abs_Q>  (213) 
0

>  <s_epik_Chemistry_Notes>  (213) 
This compound has an imine and may undergo hydrolysis.

>  <s_lp_Force_Field>  (213) 
OPLS3e

>  <r_lp_Energy>  (213) 
7.37177

>  <b_lp_Chiralities_Consistent>  (213) 
1

>  <s_lp_Variant>  (213) 
66:0-6

>  <s_i_glide_gridfile>  (213) 
pfpi4k_grid

>  <i_i_glide_lignum>  (213) 
17

>  <i_i_glide_rotatable_bonds>  (213) 
2

>  <r_i_docking_score>  (213) 
-3.69258

>  <r_i_glide_ligand_efficiency>  (213) 
-0.246172

>  <r_i_glide_ligand_efficiency_sa>  (213) 
-0.607112

>  <r_i_glide_ligand_efficiency_ln>  (213) 
-0.995827

>  <r_i_glide_gscore>  (213) 
-3.69258

>  <r_i_glide_lipo>  (213) 
-0.269529

>  <r_i_glide_hbond>  (213) 
-0.32

>  <r_i_glide_metal>  (213) 
-0

>  <r_i_glide_rewards>  (213) 
-1.92085

>  <r_i_glide_evdw>  (213) 
-17.3461

>  <r_i_glide_ecoul>  (213) 
-3.80135

>  <r_i_glide_erotb>  (213) 
0.35266

>  <r_i_glide_esite>  (213) 
-0.0973535

>  <r_i_glide_emodel>  (213) 
-22.7629

>  <r_i_glide_energy>  (213) 
-21.1475

>  <r_i_glide_einternal>  (213) 
7.92806

>  <r_i_glide_intrahb_reward>  (213) 
-0

>  <i_i_glide_confnum>  (213) 
2

>  <i_i_glide_posenum>  (213) 
16

>  <r_i_glide_eff_state_penalty>  (213) 
0

>  <ligand_id>  (213) 
66

>  <original_smiles>  (213) 
CN=C1NC(=O)C(=CC=C2C=CC=C2)S1

>  <smiles>  (213) 
[H]C1=C([H])C(=C([H])C([H])=C2SC(N([H])C([H])([H])[H])=NC2=O)C([H])=C1[H]

$$$$
66:5:1
     RDKit          3D

 25 26  0  0  1  0  0  0  0  0999 V2000
    2.9572    5.5154    3.4254 C   0  0  0  0  0  0  0  0  0  0  0  0
    3.0678    4.1697    2.8863 N   0  0  0  0  0  0  0  0  0  0  0  0
    2.0996    3.1872    2.8940 C   0  0  0  0  0  0  0  0  0  0  0  0
    2.2409    2.0303    2.3588 N   0  0  0  0  0  0  0  0  0  0  0  0
    1.0865    1.2894    2.5265 C   0  0  0  0  0  0  0  0  0  0  0  0
    0.9567    0.1464    2.0848 O   0  0  0  0  0  0  0  0  0  0  0  0
    0.0497    1.9815    3.3014 C   0  0  0  0  0  0  0  0  0  0  0  0
   -1.1347    1.4194    3.6042 C   0  0  0  0  0  0  0  0  0  0  0  0
   -2.1804    2.0437    4.3837 C   0  0  0  0  0  0  0  0  0  0  0  0
   -2.0531    2.5107    5.6385 C   0  0  0  0  0  0  0  0  0  0  0  0
   -3.0923    3.1519    6.3979 C   0  0  0  0  0  0  0  0  0  0  0  0
   -2.5870    3.4894    7.5930 C   0  0  0  0  0  0  0  0  0  0  0  0
   -1.2042    3.0696    7.6481 C   0  0  0  0  0  0  0  0  0  0  0  0
   -0.8879    2.4744    6.4895 C   0  0  0  0  0  0  0  0  0  0  0  0
    0.5883    3.6039    3.7190 S   0  0  0  0  0  0  0  0  0  0  0  0
    3.8868    6.0612    3.2761 H   0  0  0  0  0  0  0  0  0  0  0  0
    2.7507    5.4917    4.4985 H   0  0  0  0  0  0  0  0  0  0  0  0
    2.1584    6.0641    2.9222 H   0  0  0  0  0  0  0  0  0  0  0  0
   -1.3329    0.4184    3.2529 H   0  0  0  0  0  0  0  0  0  0  0  0
   -3.1361    2.1523    3.8944 H   0  0  0  0  0  0  0  0  0  0  0  0
   -4.0990    3.3231    6.0517 H   0  0  0  0  0  0  0  0  0  0  0  0
   -3.1233    3.9892    8.3904 H   0  0  0  0  0  0  0  0  0  0  0  0
   -0.5295    3.2238    8.4778 H   0  0  0  0  0  0  0  0  0  0  0  0
    0.0789    2.0690    6.2281 H   0  0  0  0  0  0  0  0  0  0  0  0
    3.9670    3.9431    2.4719 H   0  0  0  0  0  0  0  0  0  0  0  0
  1  2  1  0
  1 16  1  0
  1 17  1  0
  1 18  1  0
  2  3  1  0
  2 25  1  0
  3 15  1  0
  3  4  2  0
  4  5  1  0
  5  6  2  0
  5  7  1  0
  7  8  2  3
  7 15  1  0
  8  9  1  0
  8 19  1  0
  9 10  2  3
  9 20  1  0
 10 14  1  0
 10 11  1  0
 11 12  2  0
 11 21  1  0
 12 13  1  0
 12 22  1  0
 13 14  2  0
 13 23  1  0
 14 24  1  0
M  END
>  <i_m_ct_stereo_status>  (214) 
1

>  <s_m_source_file>  (214) 
/var/tmp/pbs.5076255.sched01/tmpi2d1958y/88otlks1nw.sdf

>  <i_m_source_file_index>  (214) 
17

>  <i_lp_mmshare_version>  (214) 
48012

>  <i_f3d_flags>  (214) 
0

>  <s_epik_input>  (214) 
W0NIM10vTj1DMVxbTkhdQyg9TykvQyhTMSk9W0NIXVxbQ0hdPUMyW0NIXT1bQ0hdW0NIXT1bQ0hdMg==

>  <s_epik_cmdline>  (214) 
J2VwaWtfcHl0aG9uJywgJy1waHQnLCAnMi4wJywgJy1waCcsICc3LjAnLCAnLXRuJywgJzgnLCAnLW1hJywgJzIwMCcsICctaW1hZScsICc8aW5maWxlLm1hZT4nLCAnLW9tYWUnLCAnPG91dGZpbGUubWFlPic=

>  <r_epik_Ionization_Penalty>  (214) 
2.60903e-06

>  <r_epik_Ionization_Penalty_Charging>  (214) 
0

>  <r_epik_Ionization_Penalty_Neutral>  (214) 
2.60903e-06

>  <r_epik_State_Penalty>  (214) 
0.780036

>  <r_epik_Charging_Adjusted_Penalty>  (214) 
0.780036

>  <i_epik_Tot_Q>  (214) 
0

>  <i_epik_Tot_abs_Q>  (214) 
0

>  <s_epik_Chemistry_Notes>  (214) 
This compound has an imine and may undergo hydrolysis.

>  <s_lp_Force_Field>  (214) 
OPLS3e

>  <r_lp_Energy>  (214) 
7.37177

>  <b_lp_Chiralities_Consistent>  (214) 
1

>  <s_lp_Variant>  (214) 
66:0-6

>  <s_i_glide_gridfile>  (214) 
pfpi4k_grid

>  <i_i_glide_lignum>  (214) 
17

>  <i_i_glide_rotatable_bonds>  (214) 
2

>  <r_i_docking_score>  (214) 
-3.68966

>  <r_i_glide_ligand_efficiency>  (214) 
-0.245977

>  <r_i_glide_ligand_efficiency_sa>  (214) 
-0.606632

>  <r_i_glide_ligand_efficiency_ln>  (214) 
-0.99504

>  <r_i_glide_gscore>  (214) 
-3.68966

>  <r_i_glide_lipo>  (214) 
-0.380644

>  <r_i_glide_hbond>  (214) 
-0.32

>  <r_i_glide_metal>  (214) 
-0

>  <r_i_glide_rewards>  (214) 
-1.92085

>  <r_i_glide_evdw>  (214) 
-16.3502

>  <r_i_glide_ecoul>  (214) 
-3.36656

>  <r_i_glide_erotb>  (214) 
0.35266

>  <r_i_glide_esite>  (214) 
-0.0983369

>  <r_i_glide_emodel>  (214) 
-22.0359

>  <r_i_glide_energy>  (214) 
-19.7167

>  <r_i_glide_einternal>  (214) 
6.53524

>  <r_i_glide_intrahb_reward>  (214) 
-0

>  <i_i_glide_confnum>  (214) 
5

>  <i_i_glide_posenum>  (214) 
25

>  <r_i_glide_eff_state_penalty>  (214) 
0

>  <ligand_id>  (214) 
66

>  <original_smiles>  (214) 
CN=C1NC(=O)C(=CC=C2C=CC=C2)S1

>  <smiles>  (214) 
[H]C1=C([H])C(=C([H])C([H])=C2SC(N([H])C([H])([H])[H])=NC2=O)C([H])=C1[H]

$$$$
66:5:2
     RDKit          3D

 25 26  0  0  1  0  0  0  0  0999 V2000
    2.4437   -0.6573    2.1592 C   0  0  0  0  0  0  0  0  0  0  0  0
    1.2008   -0.0669    1.6916 N   0  0  0  0  0  0  0  0  0  0  0  0
    0.3094    0.6606    2.4780 C   0  0  0  0  0  0  0  0  0  0  0  0
   -0.6736    1.3444    2.0246 N   0  0  0  0  0  0  0  0  0  0  0  0
   -1.3610    1.9569    3.0582 C   0  0  0  0  0  0  0  0  0  0  0  0
   -2.3233    2.7032    2.8754 O   0  0  0  0  0  0  0  0  0  0  0  0
   -0.8548    1.6306    4.3942 C   0  0  0  0  0  0  0  0  0  0  0  0
   -1.4417    2.0818    5.5216 C   0  0  0  0  0  0  0  0  0  0  0  0
   -0.9821    1.7910    6.8677 C   0  0  0  0  0  0  0  0  0  0  0  0
   -1.6429    2.1313    7.9875 C   0  0  0  0  0  0  0  0  0  0  0  0
   -1.1933    1.8575    9.3317 C   0  0  0  0  0  0  0  0  0  0  0  0
   -2.1207    2.3299   10.1768 C   0  0  0  0  0  0  0  0  0  0  0  0
   -3.1976    2.9207    9.4120 C   0  0  0  0  0  0  0  0  0  0  0  0
   -2.9151    2.8070    8.1052 C   0  0  0  0  0  0  0  0  0  0  0  0
    0.5633    0.5905    4.2430 S   0  0  0  0  0  0  0  0  0  0  0  0
    2.9534   -1.1551    1.3344 H   0  0  0  0  0  0  0  0  0  0  0  0
    2.2631   -1.4007    2.9362 H   0  0  0  0  0  0  0  0  0  0  0  0
    3.1147    0.1068    2.5542 H   0  0  0  0  0  0  0  0  0  0  0  0
   -2.3052    2.7244    5.4182 H   0  0  0  0  0  0  0  0  0  0  0  0
   -0.0340    1.2942    6.9912 H   0  0  0  0  0  0  0  0  0  0  0  0
   -0.2765    1.3594    9.6181 H   0  0  0  0  0  0  0  0  0  0  0  0
   -2.0778    2.2671   11.2579 H   0  0  0  0  0  0  0  0  0  0  0  0
   -4.0867    3.3655    9.8362 H   0  0  0  0  0  0  0  0  0  0  0  0
   -3.5360    3.1576    7.2942 H   0  0  0  0  0  0  0  0  0  0  0  0
    1.0145   -0.2410    0.6941 H   0  0  0  0  0  0  0  0  0  0  0  0
  1  2  1  0
  1 16  1  0
  1 17  1  0
  1 18  1  0
  2  3  1  0
  2 25  1  0
  3 15  1  0
  3  4  2  0
  4  5  1  0
  5  6  2  0
  5  7  1  0
  7  8  2  3
  7 15  1  0
  8  9  1  0
  8 19  1  0
  9 10  2  3
  9 20  1  0
 10 14  1  0
 10 11  1  0
 11 12  2  0
 11 21  1  0
 12 13  1  0
 12 22  1  0
 13 14  2  0
 13 23  1  0
 14 24  1  0
M  END
>  <i_m_ct_stereo_status>  (215) 
1

>  <s_m_source_file>  (215) 
/var/tmp/pbs.5076255.sched01/tmpi2d1958y/88otlks1nw.sdf

>  <i_m_source_file_index>  (215) 
17

>  <i_lp_mmshare_version>  (215) 
48012

>  <i_f3d_flags>  (215) 
0

>  <s_epik_input>  (215) 
W0NIM10vTj1DMVxbTkhdQyg9TykvQyhTMSk9W0NIXVxbQ0hdPUMyW0NIXT1bQ0hdW0NIXT1bQ0hdMg==

>  <s_epik_cmdline>  (215) 
J2VwaWtfcHl0aG9uJywgJy1waHQnLCAnMi4wJywgJy1waCcsICc3LjAnLCAnLXRuJywgJzgnLCAnLW1hJywgJzIwMCcsICctaW1hZScsICc8aW5maWxlLm1hZT4nLCAnLW9tYWUnLCAnPG91dGZpbGUubWFlPic=

>  <r_epik_Ionization_Penalty>  (215) 
2.60903e-06

>  <r_epik_Ionization_Penalty_Charging>  (215) 
0

>  <r_epik_Ionization_Penalty_Neutral>  (215) 
2.60903e-06

>  <r_epik_State_Penalty>  (215) 
0.780036

>  <r_epik_Charging_Adjusted_Penalty>  (215) 
0.780036

>  <i_epik_Tot_Q>  (215) 
0

>  <i_epik_Tot_abs_Q>  (215) 
0

>  <s_epik_Chemistry_Notes>  (215) 
This compound has an imine and may undergo hydrolysis.

>  <s_lp_Force_Field>  (215) 
OPLS3e

>  <r_lp_Energy>  (215) 
7.37177

>  <b_lp_Chiralities_Consistent>  (215) 
1

>  <s_lp_Variant>  (215) 
66:0-6

>  <s_i_glide_gridfile>  (215) 
pfpi4k_grid

>  <i_i_glide_lignum>  (215) 
17

>  <i_i_glide_rotatable_bonds>  (215) 
2

>  <r_i_docking_score>  (215) 
-3.61661

>  <r_i_glide_ligand_efficiency>  (215) 
-0.241107

>  <r_i_glide_ligand_efficiency_sa>  (215) 
-0.594622

>  <r_i_glide_ligand_efficiency_ln>  (215) 
-0.97534

>  <r_i_glide_gscore>  (215) 
-3.61661

>  <r_i_glide_lipo>  (215) 
-0.126918

>  <r_i_glide_hbond>  (215) 
-0.16

>  <r_i_glide_metal>  (215) 
-0

>  <r_i_glide_rewards>  (215) 
-1.92085

>  <r_i_glide_evdw>  (215) 
-16.0486

>  <r_i_glide_ecoul>  (215) 
-5.16865

>  <r_i_glide_erotb>  (215) 
0.35266

>  <r_i_glide_esite>  (215) 
-0.183776

>  <r_i_glide_emodel>  (215) 
-25.2867

>  <r_i_glide_energy>  (215) 
-21.2173

>  <r_i_glide_einternal>  (215) 
2.7957

>  <r_i_glide_intrahb_reward>  (215) 
-0

>  <i_i_glide_confnum>  (215) 
5

>  <i_i_glide_posenum>  (215) 
34

>  <r_i_glide_eff_state_penalty>  (215) 
0

>  <ligand_id>  (215) 
66

>  <original_smiles>  (215) 
CN=C1NC(=O)C(=CC=C2C=CC=C2)S1

>  <smiles>  (215) 
[H]C1=C([H])C(=C([H])C([H])=C2SC(N([H])C([H])([H])[H])=NC2=O)C([H])=C1[H]

$$$$
66:6:0
     RDKit          3D

 24 25  0  0  1  0  0  0  0  0999 V2000
   -1.6925   -8.0602    3.5037 C   0  0  0  0  0  0  0  0  0  0  0  0
   -0.3184   -7.7718    3.8448 N   0  0  0  0  0  0  0  0  0  0  0  0
    0.4196   -7.1857    2.9897 C   0  0  0  0  0  0  0  0  0  0  0  0
    0.0921   -6.7015    1.7541 N   0  0  0  0  0  0  0  0  0  0  0  0
    1.1558   -6.2598    1.0328 C   0  0  0  0  0  0  0  0  0  0  0  0
    1.0226   -5.8611   -0.1197 O   0  0  0  0  0  0  0  0  0  0  0  0
    2.4336   -6.1995    1.7578 C   0  0  0  0  0  0  0  0  0  0  0  0
    3.6205   -5.6724    1.3675 C   0  0  0  0  0  0  0  0  0  0  0  0
    3.9437   -5.0529    0.0907 C   0  0  0  0  0  0  0  0  0  0  0  0
    5.1232   -4.4925   -0.2139 C   0  0  0  0  0  0  0  0  0  0  0  0
    5.4611   -3.8858   -1.4822 C   0  0  0  0  0  0  0  0  0  0  0  0
    6.7226   -3.4402   -1.4016 C   0  0  0  0  0  0  0  0  0  0  0  0
    7.2394   -3.7369   -0.0806 C   0  0  0  0  0  0  0  0  0  0  0  0
    6.2915   -4.3651    0.6274 C   0  0  0  0  0  0  0  0  0  0  0  0
    2.1362   -6.8965    3.3428 S   0  0  0  0  0  0  0  0  0  0  0  0
   -2.1944   -8.5516    4.3371 H   0  0  0  0  0  0  0  0  0  0  0  0
   -1.7621   -8.7337    2.6445 H   0  0  0  0  0  0  0  0  0  0  0  0
   -2.2392   -7.1469    3.2648 H   0  0  0  0  0  0  0  0  0  0  0  0
    4.4079   -5.7056    2.1055 H   0  0  0  0  0  0  0  0  0  0  0  0
    3.2039   -5.0437   -0.6905 H   0  0  0  0  0  0  0  0  0  0  0  0
    4.8178   -3.8283   -2.3528 H   0  0  0  0  0  0  0  0  0  0  0  0
    7.2767   -2.9605   -2.1990 H   0  0  0  0  0  0  0  0  0  0  0  0
    8.2293   -3.4916    0.2777 H   0  0  0  0  0  0  0  0  0  0  0  0
    6.3863   -4.7091    1.6486 H   0  0  0  0  0  0  0  0  0  0  0  0
  1  2  1  0
  1 16  1  0
  1 17  1  0
  1 18  1  0
  2  3  2  3
  3 15  1  0
  3  4  1  0
  4  5  1  0
  5  6  2  0
  5  7  1  0
  7  8  2  3
  7 15  1  0
  8  9  1  0
  8 19  1  0
  9 10  2  3
  9 20  1  0
 10 14  1  0
 10 11  1  0
 11 12  2  0
 11 21  1  0
 12 13  1  0
 12 22  1  0
 13 14  2  0
 13 23  1  0
 14 24  1  0
M  CHG  1   4  -1
M  END
>  <i_m_ct_stereo_status>  (216) 
1

>  <s_m_source_file>  (216) 
/var/tmp/pbs.5076255.sched01/tmpi2d1958y/88otlks1nw.sdf

>  <i_m_source_file_index>  (216) 
18

>  <i_lp_mmshare_version>  (216) 
48012

>  <i_f3d_flags>  (216) 
0

>  <s_epik_input>  (216) 
W0NIM10vTj1DMVxbTkhdQyg9TykvQyhTMSk9W0NIXVxbQ0hdPUMyW0NIXT1bQ0hdW0NIXT1bQ0hdMg==

>  <s_epik_cmdline>  (216) 
J2VwaWtfcHl0aG9uJywgJy1waHQnLCAnMi4wJywgJy1waCcsICc3LjAnLCAnLXRuJywgJzgnLCAnLW1hJywgJzIwMCcsICctaW1hZScsICc8aW5maWxlLm1hZT4nLCAnLW9tYWUnLCAnPG91dGZpbGUubWFlPic=

>  <r_epik_Ionization_Penalty>  (216) 
1.41153

>  <r_epik_Ionization_Penalty_Charging>  (216) 
0.849572

>  <r_epik_Ionization_Penalty_Neutral>  (216) 
0.56196

>  <r_epik_State_Penalty>  (216) 
1.06994

>  <r_epik_Charging_Adjusted_Penalty>  (216) 
1.91952

>  <i_epik_Tot_Q>  (216) 
-1

>  <i_epik_Tot_abs_Q>  (216) 
1

>  <s_epik_Chemistry_Notes>  (216) 
This compound has an imine and may undergo hydrolysis.

>  <s_lp_Force_Field>  (216) 
OPLS3e

>  <r_lp_Energy>  (216) 
17.1942

>  <b_lp_Chiralities_Consistent>  (216) 
1

>  <s_lp_Variant>  (216) 
66:0-7

>  <s_i_glide_gridfile>  (216) 
pfpi4k_grid

>  <i_i_glide_lignum>  (216) 
18

>  <i_i_glide_rotatable_bonds>  (216) 
1

>  <r_i_docking_score>  (216) 
-4.13508

>  <r_i_glide_ligand_efficiency>  (216) 
-0.275672

>  <r_i_glide_ligand_efficiency_sa>  (216) 
-0.679866

>  <r_i_glide_ligand_efficiency_ln>  (216) 
-1.11516

>  <r_i_glide_gscore>  (216) 
-4.13508

>  <r_i_glide_lipo>  (216) 
-0.478965

>  <r_i_glide_hbond>  (216) 
-0.626273

>  <r_i_glide_metal>  (216) 
-0

>  <r_i_glide_rewards>  (216) 
-1.92772

>  <r_i_glide_evdw>  (216) 
-15.2593

>  <r_i_glide_ecoul>  (216) 
-3.72704

>  <r_i_glide_erotb>  (216) 
0.355422

>  <r_i_glide_esite>  (216) 
-0.135524

>  <r_i_glide_emodel>  (216) 
-26.1586

>  <r_i_glide_energy>  (216) 
-18.9863

>  <r_i_glide_einternal>  (216) 
0.0689658

>  <r_i_glide_intrahb_reward>  (216) 
-0

>  <i_i_glide_confnum>  (216) 
4

>  <i_i_glide_posenum>  (216) 
1

>  <r_i_glide_eff_state_penalty>  (216) 
0

>  <ligand_id>  (216) 
66

>  <original_smiles>  (216) 
CN=C1NC(=O)C(=CC=C2C=CC=C2)S1

>  <smiles>  (216) 
[H]C1=C([H])C(=C([H])C([H])=C2SC(=NC([H])([H])[H])[N-]C2=O)C([H])=C1[H]

$$$$
66:6:1
     RDKit          3D

 24 25  0  0  1  0  0  0  0  0999 V2000
    1.5867   -8.3534    3.9890 C   0  0  0  0  0  0  0  0  0  0  0  0
    2.5696   -7.3128    3.7477 N   0  0  0  0  0  0  0  0  0  0  0  0
    2.4897   -6.6225    2.6803 C   0  0  0  0  0  0  0  0  0  0  0  0
    1.5580   -6.6985    1.6898 N   0  0  0  0  0  0  0  0  0  0  0  0
    1.7783   -5.8726    0.6432 C   0  0  0  0  0  0  0  0  0  0  0  0
    1.0164   -5.8524   -0.3195 O   0  0  0  0  0  0  0  0  0  0  0  0
    2.9247   -4.9734    0.7763 C   0  0  0  0  0  0  0  0  0  0  0  0
    3.3384   -3.9847   -0.0468 C   0  0  0  0  0  0  0  0  0  0  0  0
    2.7628   -3.5834   -1.3224 C   0  0  0  0  0  0  0  0  0  0  0  0
    3.1595   -2.5200   -2.0425 C   0  0  0  0  0  0  0  0  0  0  0  0
    2.6170   -2.1197   -3.3216 C   0  0  0  0  0  0  0  0  0  0  0  0
    3.2523   -1.0025   -3.7051 C   0  0  0  0  0  0  0  0  0  0  0  0
    4.2249   -0.6476   -2.6927 C   0  0  0  0  0  0  0  0  0  0  0  0
    4.1762   -1.5504   -1.7039 C   0  0  0  0  0  0  0  0  0  0  0  0
    3.6823   -5.3693    2.3114 S   0  0  0  0  0  0  0  0  0  0  0  0
    1.7817   -8.8485    4.9412 H   0  0  0  0  0  0  0  0  0  0  0  0
    1.6118   -9.1196    3.2108 H   0  0  0  0  0  0  0  0  0  0  0  0
    0.5730   -7.9506    4.0298 H   0  0  0  0  0  0  0  0  0  0  0  0
    4.2047   -3.4351    0.2857 H   0  0  0  0  0  0  0  0  0  0  0  0
    1.9848   -4.1853   -1.7611 H   0  0  0  0  0  0  0  0  0  0  0  0
    1.8204   -2.6175   -3.8617 H   0  0  0  0  0  0  0  0  0  0  0  0
    3.0490   -0.4407   -4.6061 H   0  0  0  0  0  0  0  0  0  0  0  0
    4.8676    0.2187   -2.7161 H   0  0  0  0  0  0  0  0  0  0  0  0
    4.7762   -1.5381   -0.8055 H   0  0  0  0  0  0  0  0  0  0  0  0
  1  2  1  0
  1 16  1  0
  1 17  1  0
  1 18  1  0
  2  3  2  3
  3 15  1  0
  3  4  1  0
  4  5  1  0
  5  6  2  0
  5  7  1  0
  7  8  2  3
  7 15  1  0
  8  9  1  0
  8 19  1  0
  9 10  2  3
  9 20  1  0
 10 14  1  0
 10 11  1  0
 11 12  2  0
 11 21  1  0
 12 13  1  0
 12 22  1  0
 13 14  2  0
 13 23  1  0
 14 24  1  0
M  CHG  1   4  -1
M  END
>  <i_m_ct_stereo_status>  (217) 
1

>  <s_m_source_file>  (217) 
/var/tmp/pbs.5076255.sched01/tmpi2d1958y/88otlks1nw.sdf

>  <i_m_source_file_index>  (217) 
18

>  <i_lp_mmshare_version>  (217) 
48012

>  <i_f3d_flags>  (217) 
0

>  <s_epik_input>  (217) 
W0NIM10vTj1DMVxbTkhdQyg9TykvQyhTMSk9W0NIXVxbQ0hdPUMyW0NIXT1bQ0hdW0NIXT1bQ0hdMg==

>  <s_epik_cmdline>  (217) 
J2VwaWtfcHl0aG9uJywgJy1waHQnLCAnMi4wJywgJy1waCcsICc3LjAnLCAnLXRuJywgJzgnLCAnLW1hJywgJzIwMCcsICctaW1hZScsICc8aW5maWxlLm1hZT4nLCAnLW9tYWUnLCAnPG91dGZpbGUubWFlPic=

>  <r_epik_Ionization_Penalty>  (217) 
1.41153

>  <r_epik_Ionization_Penalty_Charging>  (217) 
0.849572

>  <r_epik_Ionization_Penalty_Neutral>  (217) 
0.56196

>  <r_epik_State_Penalty>  (217) 
1.06994

>  <r_epik_Charging_Adjusted_Penalty>  (217) 
1.91952

>  <i_epik_Tot_Q>  (217) 
-1

>  <i_epik_Tot_abs_Q>  (217) 
1

>  <s_epik_Chemistry_Notes>  (217) 
This compound has an imine and may undergo hydrolysis.

>  <s_lp_Force_Field>  (217) 
OPLS3e

>  <r_lp_Energy>  (217) 
17.1942

>  <b_lp_Chiralities_Consistent>  (217) 
1

>  <s_lp_Variant>  (217) 
66:0-7

>  <s_i_glide_gridfile>  (217) 
pfpi4k_grid

>  <i_i_glide_lignum>  (217) 
18

>  <i_i_glide_rotatable_bonds>  (217) 
1

>  <r_i_docking_score>  (217) 
-3.79507

>  <r_i_glide_ligand_efficiency>  (217) 
-0.253004

>  <r_i_glide_ligand_efficiency_sa>  (217) 
-0.623962

>  <r_i_glide_ligand_efficiency_ln>  (217) 
-1.02347

>  <r_i_glide_gscore>  (217) 
-3.79507

>  <r_i_glide_lipo>  (217) 
-0.479247

>  <r_i_glide_hbond>  (217) 
-0.459545

>  <r_i_glide_metal>  (217) 
-0

>  <r_i_glide_rewards>  (217) 
-1.92772

>  <r_i_glide_evdw>  (217) 
-15.398

>  <r_i_glide_ecoul>  (217) 
-2.8964

>  <r_i_glide_erotb>  (217) 
0.355422

>  <r_i_glide_esite>  (217) 
-0.0796165

>  <r_i_glide_emodel>  (217) 
-24.8207

>  <r_i_glide_energy>  (217) 
-18.2944

>  <r_i_glide_einternal>  (217) 
0.228228

>  <r_i_glide_intrahb_reward>  (217) 
-0

>  <i_i_glide_confnum>  (217) 
1

>  <i_i_glide_posenum>  (217) 
31

>  <r_i_glide_eff_state_penalty>  (217) 
0

>  <ligand_id>  (217) 
66

>  <original_smiles>  (217) 
CN=C1NC(=O)C(=CC=C2C=CC=C2)S1

>  <smiles>  (217) 
[H]C1=C([H])C(=C([H])C([H])=C2SC(=NC([H])([H])[H])[N-]C2=O)C([H])=C1[H]

$$$$
66:6:2
     RDKit          3D

 24 25  0  0  1  0  0  0  0  0999 V2000
    7.8021   -6.1275    1.7913 C   0  0  0  0  0  0  0  0  0  0  0  0
    6.5081   -6.0168    1.1527 N   0  0  0  0  0  0  0  0  0  0  0  0
    6.2355   -4.9570    0.4956 C   0  0  0  0  0  0  0  0  0  0  0  0
    7.0163   -3.8648    0.2887 N   0  0  0  0  0  0  0  0  0  0  0  0
    6.4494   -2.8953   -0.4704 C   0  0  0  0  0  0  0  0  0  0  0  0
    7.0313   -1.8583   -0.7644 O   0  0  0  0  0  0  0  0  0  0  0  0
    5.0898   -3.1771   -0.9313 C   0  0  0  0  0  0  0  0  0  0  0  0
    4.2826   -2.4296   -1.7250 C   0  0  0  0  0  0  0  0  0  0  0  0
    4.5522   -1.1105   -2.2800 C   0  0  0  0  0  0  0  0  0  0  0  0
    3.8302   -0.5285   -3.2561 C   0  0  0  0  0  0  0  0  0  0  0  0
    4.0620    0.7797   -3.8281 C   0  0  0  0  0  0  0  0  0  0  0  0
    3.1551    0.9854   -4.7859 C   0  0  0  0  0  0  0  0  0  0  0  0
    2.2899   -0.1626   -4.8526 C   0  0  0  0  0  0  0  0  0  0  0  0
    2.6877   -1.0713   -3.9505 C   0  0  0  0  0  0  0  0  0  0  0  0
    4.6656   -4.7562   -0.2968 S   0  0  0  0  0  0  0  0  0  0  0  0
    7.8900   -7.0799    2.3148 H   0  0  0  0  0  0  0  0  0  0  0  0
    7.9569   -5.3355    2.5279 H   0  0  0  0  0  0  0  0  0  0  0  0
    8.6193   -6.0755    1.0688 H   0  0  0  0  0  0  0  0  0  0  0  0
    3.3095   -2.8535   -1.9423 H   0  0  0  0  0  0  0  0  0  0  0  0
    5.3549   -0.5250   -1.8660 H   0  0  0  0  0  0  0  0  0  0  0  0
    4.7758    1.5243   -3.5200 H   0  0  0  0  0  0  0  0  0  0  0  0
    3.0462    1.8979   -5.3523 H   0  0  0  0  0  0  0  0  0  0  0  0
    1.4424   -0.2531   -5.5122 H   0  0  0  0  0  0  0  0  0  0  0  0
    2.2176   -2.0294   -3.7686 H   0  0  0  0  0  0  0  0  0  0  0  0
  1  2  1  0
  1 16  1  0
  1 17  1  0
  1 18  1  0
  2  3  2  3
  3 15  1  0
  3  4  1  0
  4  5  1  0
  5  6  2  0
  5  7  1  0
  7  8  2  3
  7 15  1  0
  8  9  1  0
  8 19  1  0
  9 10  2  3
  9 20  1  0
 10 14  1  0
 10 11  1  0
 11 12  2  0
 11 21  1  0
 12 13  1  0
 12 22  1  0
 13 14  2  0
 13 23  1  0
 14 24  1  0
M  CHG  1   4  -1
M  END
>  <i_m_ct_stereo_status>  (218) 
1

>  <s_m_source_file>  (218) 
/var/tmp/pbs.5076255.sched01/tmpi2d1958y/88otlks1nw.sdf

>  <i_m_source_file_index>  (218) 
18

>  <i_lp_mmshare_version>  (218) 
48012

>  <i_f3d_flags>  (218) 
0

>  <s_epik_input>  (218) 
W0NIM10vTj1DMVxbTkhdQyg9TykvQyhTMSk9W0NIXVxbQ0hdPUMyW0NIXT1bQ0hdW0NIXT1bQ0hdMg==

>  <s_epik_cmdline>  (218) 
J2VwaWtfcHl0aG9uJywgJy1waHQnLCAnMi4wJywgJy1waCcsICc3LjAnLCAnLXRuJywgJzgnLCAnLW1hJywgJzIwMCcsICctaW1hZScsICc8aW5maWxlLm1hZT4nLCAnLW9tYWUnLCAnPG91dGZpbGUubWFlPic=

>  <r_epik_Ionization_Penalty>  (218) 
1.41153

>  <r_epik_Ionization_Penalty_Charging>  (218) 
0.849572

>  <r_epik_Ionization_Penalty_Neutral>  (218) 
0.56196

>  <r_epik_State_Penalty>  (218) 
1.06994

>  <r_epik_Charging_Adjusted_Penalty>  (218) 
1.91952

>  <i_epik_Tot_Q>  (218) 
-1

>  <i_epik_Tot_abs_Q>  (218) 
1

>  <s_epik_Chemistry_Notes>  (218) 
This compound has an imine and may undergo hydrolysis.

>  <s_lp_Force_Field>  (218) 
OPLS3e

>  <r_lp_Energy>  (218) 
17.1942

>  <b_lp_Chiralities_Consistent>  (218) 
1

>  <s_lp_Variant>  (218) 
66:0-7

>  <s_i_glide_gridfile>  (218) 
pfpi4k_grid

>  <i_i_glide_lignum>  (218) 
18

>  <i_i_glide_rotatable_bonds>  (218) 
1

>  <r_i_docking_score>  (218) 
-3.48421

>  <r_i_glide_ligand_efficiency>  (218) 
-0.232281

>  <r_i_glide_ligand_efficiency_sa>  (218) 
-0.572854

>  <r_i_glide_ligand_efficiency_ln>  (218) 
-0.939635

>  <r_i_glide_gscore>  (218) 
-3.48421

>  <r_i_glide_lipo>  (218) 
-0.310668

>  <r_i_glide_hbond>  (218) 
-0.16

>  <r_i_glide_metal>  (218) 
-0

>  <r_i_glide_rewards>  (218) 
-2.12368

>  <r_i_glide_evdw>  (218) 
-16.681

>  <r_i_glide_ecoul>  (218) 
-2.7416

>  <r_i_glide_erotb>  (218) 
0.355422

>  <r_i_glide_esite>  (218) 
0

>  <r_i_glide_emodel>  (218) 
-25.1285

>  <r_i_glide_energy>  (218) 
-19.4226

>  <r_i_glide_einternal>  (218) 
0.752815

>  <r_i_glide_intrahb_reward>  (218) 
-0

>  <i_i_glide_confnum>  (218) 
4

>  <i_i_glide_posenum>  (218) 
40

>  <r_i_glide_eff_state_penalty>  (218) 
0

>  <ligand_id>  (218) 
66

>  <original_smiles>  (218) 
CN=C1NC(=O)C(=CC=C2C=CC=C2)S1

>  <smiles>  (218) 
[H]C1=C([H])C(=C([H])C([H])=C2SC(=NC([H])([H])[H])[N-]C2=O)C([H])=C1[H]

$$$$
66:7:0
     RDKit          3D

 24 25  0  0  1  0  0  0  0  0999 V2000
   -1.7868   -8.6223    3.4399 C   0  0  0  0  0  0  0  0  0  0  0  0
   -1.4388   -7.4887    2.6062 N   0  0  0  0  0  0  0  0  0  0  0  0
   -0.2294   -7.2937    2.2686 C   0  0  0  0  0  0  0  0  0  0  0  0
    0.1856   -6.2604    1.4889 N   0  0  0  0  0  0  0  0  0  0  0  0
    1.5217   -6.2531    1.2449 C   0  0  0  0  0  0  0  0  0  0  0  0
    2.0332   -5.4030    0.5236 O   0  0  0  0  0  0  0  0  0  0  0  0
    2.2987   -7.3053    1.9033 C   0  0  0  0  0  0  0  0  0  0  0  0
    3.6346   -7.4923    1.8981 C   0  0  0  0  0  0  0  0  0  0  0  0
    4.6340   -6.6915    1.2022 C   0  0  0  0  0  0  0  0  0  0  0  0
    5.9584   -6.8721    1.3034 C   0  0  0  0  0  0  0  0  0  0  0  0
    6.9617   -6.0880    0.6234 C   0  0  0  0  0  0  0  0  0  0  0  0
    8.1619   -6.5768    0.9702 C   0  0  0  0  0  0  0  0  0  0  0  0
    7.9702   -7.6721    1.8974 C   0  0  0  0  0  0  0  0  0  0  0  0
    6.6582   -7.8527    2.0954 C   0  0  0  0  0  0  0  0  0  0  0  0
    1.1431   -8.3101    2.7654 S   0  0  0  0  0  0  0  0  0  0  0  0
   -2.8609   -8.6283    3.5978 H   0  0  0  0  0  0  0  0  0  0  0  0
   -1.3304   -8.5590    4.4287 H   0  0  0  0  0  0  0  0  0  0  0  0
   -1.5222   -9.5790    2.9825 H   0  0  0  0  0  0  0  0  0  0  0  0
    3.9919   -8.3328    2.4709 H   0  0  0  0  0  0  0  0  0  0  0  0
    4.3234   -5.9055    0.5391 H   0  0  0  0  0  0  0  0  0  0  0  0
    6.7774   -5.2582   -0.0459 H   0  0  0  0  0  0  0  0  0  0  0  0
    9.1231   -6.2224    0.6267 H   0  0  0  0  0  0  0  0  0  0  0  0
    8.7602   -8.2411    2.3653 H   0  0  0  0  0  0  0  0  0  0  0  0
    6.2137   -8.5948    2.7428 H   0  0  0  0  0  0  0  0  0  0  0  0
  1  2  1  0
  1 16  1  0
  1 17  1  0
  1 18  1  0
  2  3  2  3
  3 15  1  0
  3  4  1  0
  4  5  1  0
  5  6  2  0
  5  7  1  0
  7  8  2  3
  7 15  1  0
  8  9  1  0
  8 19  1  0
  9 10  2  3
  9 20  1  0
 10 14  1  0
 10 11  1  0
 11 12  2  0
 11 21  1  0
 12 13  1  0
 12 22  1  0
 13 14  2  0
 13 23  1  0
 14 24  1  0
M  CHG  1   4  -1
M  END
>  <i_m_ct_stereo_status>  (219) 
1

>  <s_m_source_file>  (219) 
/var/tmp/pbs.5076255.sched01/tmpi2d1958y/88otlks1nw.sdf

>  <i_m_source_file_index>  (219) 
19

>  <i_lp_mmshare_version>  (219) 
48012

>  <i_f3d_flags>  (219) 
0

>  <s_epik_input>  (219) 
W0NIM10vTj1DMVxbTkhdQyg9TykvQyhTMSk9W0NIXVxbQ0hdPUMyW0NIXT1bQ0hdW0NIXT1bQ0hdMg==

>  <s_epik_cmdline>  (219) 
J2VwaWtfcHl0aG9uJywgJy1waHQnLCAnMi4wJywgJy1waCcsICc3LjAnLCAnLXRuJywgJzgnLCAnLW1hJywgJzIwMCcsICctaW1hZScsICc8aW5maWxlLm1hZT4nLCAnLW9tYWUnLCAnPG91dGZpbGUubWFlPic=

>  <r_epik_Ionization_Penalty>  (219) 
1.41153

>  <r_epik_Ionization_Penalty_Charging>  (219) 
0.849572

>  <r_epik_Ionization_Penalty_Neutral>  (219) 
0.56196

>  <r_epik_State_Penalty>  (219) 
1.06994

>  <r_epik_Charging_Adjusted_Penalty>  (219) 
1.91952

>  <i_epik_Tot_Q>  (219) 
-1

>  <i_epik_Tot_abs_Q>  (219) 
1

>  <s_epik_Chemistry_Notes>  (219) 
This compound has an imine and may undergo hydrolysis.

>  <s_lp_Force_Field>  (219) 
OPLS3e

>  <r_lp_Energy>  (219) 
18.7167

>  <b_lp_Chiralities_Consistent>  (219) 
1

>  <s_lp_Variant>  (219) 
66:0-8

>  <s_i_glide_gridfile>  (219) 
pfpi4k_grid

>  <i_i_glide_lignum>  (219) 
19

>  <i_i_glide_rotatable_bonds>  (219) 
1

>  <r_i_docking_score>  (219) 
-4.02833

>  <r_i_glide_ligand_efficiency>  (219) 
-0.268555

>  <r_i_glide_ligand_efficiency_sa>  (219) 
-0.662314

>  <r_i_glide_ligand_efficiency_ln>  (219) 
-1.08637

>  <r_i_glide_gscore>  (219) 
-4.02833

>  <r_i_glide_lipo>  (219) 
-0.325555

>  <r_i_glide_hbond>  (219) 
-0.413559

>  <r_i_glide_metal>  (219) 
-0

>  <r_i_glide_rewards>  (219) 
-1.92772

>  <r_i_glide_evdw>  (219) 
-15.9735

>  <r_i_glide_ecoul>  (219) 
-5.15435

>  <r_i_glide_erotb>  (219) 
0.355422

>  <r_i_glide_esite>  (219) 
-0.145093

>  <r_i_glide_emodel>  (219) 
-30.1457

>  <r_i_glide_energy>  (219) 
-21.1278

>  <r_i_glide_einternal>  (219) 
0.117151

>  <r_i_glide_intrahb_reward>  (219) 
-0

>  <i_i_glide_confnum>  (219) 
3

>  <i_i_glide_posenum>  (219) 
40

>  <r_i_glide_eff_state_penalty>  (219) 
0

>  <ligand_id>  (219) 
66

>  <original_smiles>  (219) 
CN=C1NC(=O)C(=CC=C2C=CC=C2)S1

>  <smiles>  (219) 
[H]C1=C([H])C(=C([H])C([H])=C2SC(=NC([H])([H])[H])[N-]C2=O)C([H])=C1[H]

$$$$
66:7:1
     RDKit          3D

 24 25  0  0  1  0  0  0  0  0999 V2000
    2.1419   -0.7816    8.6949 C   0  0  0  0  0  0  0  0  0  0  0  0
    0.8755   -1.4462    8.8396 N   0  0  0  0  0  0  0  0  0  0  0  0
    0.5723   -2.4090    8.0664 C   0  0  0  0  0  0  0  0  0  0  0  0
   -0.5836   -3.0840    8.1721 N   0  0  0  0  0  0  0  0  0  0  0  0
   -0.7926   -4.0252    7.2217 C   0  0  0  0  0  0  0  0  0  0  0  0
   -1.8486   -4.6413    7.1503 O   0  0  0  0  0  0  0  0  0  0  0  0
    0.3022   -4.2009    6.2686 C   0  0  0  0  0  0  0  0  0  0  0  0
    0.3943   -5.0587    5.2299 C   0  0  0  0  0  0  0  0  0  0  0  0
   -0.5814   -6.0576    4.8069 C   0  0  0  0  0  0  0  0  0  0  0  0
   -0.4888   -6.7850    3.6816 C   0  0  0  0  0  0  0  0  0  0  0  0
   -1.4423   -7.7795    3.2388 C   0  0  0  0  0  0  0  0  0  0  0  0
   -1.0047   -8.2763    2.0764 C   0  0  0  0  0  0  0  0  0  0  0  0
    0.2383   -7.6254    1.7228 C   0  0  0  0  0  0  0  0  0  0  0  0
    0.5484   -6.7351    2.6753 C   0  0  0  0  0  0  0  0  0  0  0  0
    1.5333   -3.0245    6.7026 S   0  0  0  0  0  0  0  0  0  0  0  0
    2.2398   -0.0142    9.4660 H   0  0  0  0  0  0  0  0  0  0  0  0
    2.2290   -0.2944    7.7205 H   0  0  0  0  0  0  0  0  0  0  0  0
    2.9623   -1.4905    8.8265 H   0  0  0  0  0  0  0  0  0  0  0  0
    1.3114   -5.0065    4.6657 H   0  0  0  0  0  0  0  0  0  0  0  0
   -1.4360   -6.2588    5.4266 H   0  0  0  0  0  0  0  0  0  0  0  0
   -2.3430   -8.0844    3.7578 H   0  0  0  0  0  0  0  0  0  0  0  0
   -1.4883   -9.0504    1.4968 H   0  0  0  0  0  0  0  0  0  0  0  0
    0.8281   -7.8433    0.8462 H   0  0  0  0  0  0  0  0  0  0  0  0
    1.4322   -6.1124    2.6929 H   0  0  0  0  0  0  0  0  0  0  0  0
  1  2  1  0
  1 16  1  0
  1 17  1  0
  1 18  1  0
  2  3  2  3
  3 15  1  0
  3  4  1  0
  4  5  1  0
  5  6  2  0
  5  7  1  0
  7  8  2  3
  7 15  1  0
  8  9  1  0
  8 19  1  0
  9 10  2  3
  9 20  1  0
 10 14  1  0
 10 11  1  0
 11 12  2  0
 11 21  1  0
 12 13  1  0
 12 22  1  0
 13 14  2  0
 13 23  1  0
 14 24  1  0
M  CHG  1   4  -1
M  END
>  <i_m_ct_stereo_status>  (220) 
1

>  <s_m_source_file>  (220) 
/var/tmp/pbs.5076255.sched01/tmpi2d1958y/88otlks1nw.sdf

>  <i_m_source_file_index>  (220) 
19

>  <i_lp_mmshare_version>  (220) 
48012

>  <i_f3d_flags>  (220) 
0

>  <s_epik_input>  (220) 
W0NIM10vTj1DMVxbTkhdQyg9TykvQyhTMSk9W0NIXVxbQ0hdPUMyW0NIXT1bQ0hdW0NIXT1bQ0hdMg==

>  <s_epik_cmdline>  (220) 
J2VwaWtfcHl0aG9uJywgJy1waHQnLCAnMi4wJywgJy1waCcsICc3LjAnLCAnLXRuJywgJzgnLCAnLW1hJywgJzIwMCcsICctaW1hZScsICc8aW5maWxlLm1hZT4nLCAnLW9tYWUnLCAnPG91dGZpbGUubWFlPic=

>  <r_epik_Ionization_Penalty>  (220) 
1.41153

>  <r_epik_Ionization_Penalty_Charging>  (220) 
0.849572

>  <r_epik_Ionization_Penalty_Neutral>  (220) 
0.56196

>  <r_epik_State_Penalty>  (220) 
1.06994

>  <r_epik_Charging_Adjusted_Penalty>  (220) 
1.91952

>  <i_epik_Tot_Q>  (220) 
-1

>  <i_epik_Tot_abs_Q>  (220) 
1

>  <s_epik_Chemistry_Notes>  (220) 
This compound has an imine and may undergo hydrolysis.

>  <s_lp_Force_Field>  (220) 
OPLS3e

>  <r_lp_Energy>  (220) 
18.7167

>  <b_lp_Chiralities_Consistent>  (220) 
1

>  <s_lp_Variant>  (220) 
66:0-8

>  <s_i_glide_gridfile>  (220) 
pfpi4k_grid

>  <i_i_glide_lignum>  (220) 
19

>  <i_i_glide_rotatable_bonds>  (220) 
1

>  <r_i_docking_score>  (220) 
-3.08256

>  <r_i_glide_ligand_efficiency>  (220) 
-0.205504

>  <r_i_glide_ligand_efficiency_sa>  (220) 
-0.506816

>  <r_i_glide_ligand_efficiency_ln>  (220) 
-0.831315

>  <r_i_glide_gscore>  (220) 
-3.08256

>  <r_i_glide_lipo>  (220) 
0

>  <r_i_glide_hbond>  (220) 
-0.152124

>  <r_i_glide_metal>  (220) 
-0

>  <r_i_glide_rewards>  (220) 
-1.92772

>  <r_i_glide_evdw>  (220) 
-13.039

>  <r_i_glide_ecoul>  (220) 
-4.26711

>  <r_i_glide_erotb>  (220) 
0.355422

>  <r_i_glide_esite>  (220) 
-0.0661174

>  <r_i_glide_emodel>  (220) 
-24.1056

>  <r_i_glide_energy>  (220) 
-17.3061

>  <r_i_glide_einternal>  (220) 
0.243982

>  <r_i_glide_intrahb_reward>  (220) 
-0

>  <i_i_glide_confnum>  (220) 
4

>  <i_i_glide_posenum>  (220) 
2

>  <r_i_glide_eff_state_penalty>  (220) 
0

>  <ligand_id>  (220) 
66

>  <original_smiles>  (220) 
CN=C1NC(=O)C(=CC=C2C=CC=C2)S1

>  <smiles>  (220) 
[H]C1=C([H])C(=C([H])C([H])=C2SC(=NC([H])([H])[H])[N-]C2=O)C([H])=C1[H]

$$$$
66:7:2
     RDKit          3D

 24 25  0  0  1  0  0  0  0  0999 V2000
    2.2111   -1.3051    2.5136 C   0  0  0  0  0  0  0  0  0  0  0  0
    1.0469   -1.7177    3.2593 N   0  0  0  0  0  0  0  0  0  0  0  0
    0.4221   -0.8775    3.9865 C   0  0  0  0  0  0  0  0  0  0  0  0
   -0.6931   -1.1778    4.6993 N   0  0  0  0  0  0  0  0  0  0  0  0
   -1.2074   -0.1364    5.3876 C   0  0  0  0  0  0  0  0  0  0  0  0
   -2.2122   -0.2502    6.0774 O   0  0  0  0  0  0  0  0  0  0  0  0
   -0.4785    1.1308    5.2855 C   0  0  0  0  0  0  0  0  0  0  0  0
   -0.7272    2.3043    5.9140 C   0  0  0  0  0  0  0  0  0  0  0  0
   -1.8240    2.6099    6.8246 C   0  0  0  0  0  0  0  0  0  0  0  0
   -1.9125    3.7262    7.5674 C   0  0  0  0  0  0  0  0  0  0  0  0
   -2.9892    4.0516    8.4746 C   0  0  0  0  0  0  0  0  0  0  0  0
   -2.6992    5.2288    9.0444 C   0  0  0  0  0  0  0  0  0  0  0  0
   -1.4354    5.7064    8.5271 C   0  0  0  0  0  0  0  0  0  0  0  0
   -0.9618    4.8131    7.6484 C   0  0  0  0  0  0  0  0  0  0  0  0
    0.8724    0.8357    4.2009 S   0  0  0  0  0  0  0  0  0  0  0  0
    2.5926   -2.1516    1.9405 H   0  0  0  0  0  0  0  0  0  0  0  0
    3.0078   -0.9736    3.1815 H   0  0  0  0  0  0  0  0  0  0  0  0
    1.9797   -0.5087    1.8023 H   0  0  0  0  0  0  0  0  0  0  0  0
   -0.0438    3.1109    5.6850 H   0  0  0  0  0  0  0  0  0  0  0  0
   -2.6524    1.9250    6.9041 H   0  0  0  0  0  0  0  0  0  0  0  0
   -3.8677    3.4515    8.6776 H   0  0  0  0  0  0  0  0  0  0  0  0
   -3.2991    5.7295    9.7884 H   0  0  0  0  0  0  0  0  0  0  0  0
   -0.9485    6.6268    8.8153 H   0  0  0  0  0  0  0  0  0  0  0  0
   -0.0282    4.8939    7.1094 H   0  0  0  0  0  0  0  0  0  0  0  0
  1  2  1  0
  1 16  1  0
  1 17  1  0
  1 18  1  0
  2  3  2  3
  3 15  1  0
  3  4  1  0
  4  5  1  0
  5  6  2  0
  5  7  1  0
  7  8  2  3
  7 15  1  0
  8  9  1  0
  8 19  1  0
  9 10  2  3
  9 20  1  0
 10 14  1  0
 10 11  1  0
 11 12  2  0
 11 21  1  0
 12 13  1  0
 12 22  1  0
 13 14  2  0
 13 23  1  0
 14 24  1  0
M  CHG  1   4  -1
M  END
>  <i_m_ct_stereo_status>  (221) 
1

>  <s_m_source_file>  (221) 
/var/tmp/pbs.5076255.sched01/tmpi2d1958y/88otlks1nw.sdf

>  <i_m_source_file_index>  (221) 
19

>  <i_lp_mmshare_version>  (221) 
48012

>  <i_f3d_flags>  (221) 
0

>  <s_epik_input>  (221) 
W0NIM10vTj1DMVxbTkhdQyg9TykvQyhTMSk9W0NIXVxbQ0hdPUMyW0NIXT1bQ0hdW0NIXT1bQ0hdMg==

>  <s_epik_cmdline>  (221) 
J2VwaWtfcHl0aG9uJywgJy1waHQnLCAnMi4wJywgJy1waCcsICc3LjAnLCAnLXRuJywgJzgnLCAnLW1hJywgJzIwMCcsICctaW1hZScsICc8aW5maWxlLm1hZT4nLCAnLW9tYWUnLCAnPG91dGZpbGUubWFlPic=

>  <r_epik_Ionization_Penalty>  (221) 
1.41153

>  <r_epik_Ionization_Penalty_Charging>  (221) 
0.849572

>  <r_epik_Ionization_Penalty_Neutral>  (221) 
0.56196

>  <r_epik_State_Penalty>  (221) 
1.06994

>  <r_epik_Charging_Adjusted_Penalty>  (221) 
1.91952

>  <i_epik_Tot_Q>  (221) 
-1

>  <i_epik_Tot_abs_Q>  (221) 
1

>  <s_epik_Chemistry_Notes>  (221) 
This compound has an imine and may undergo hydrolysis.

>  <s_lp_Force_Field>  (221) 
OPLS3e

>  <r_lp_Energy>  (221) 
18.7167

>  <b_lp_Chiralities_Consistent>  (221) 
1

>  <s_lp_Variant>  (221) 
66:0-8

>  <s_i_glide_gridfile>  (221) 
pfpi4k_grid

>  <i_i_glide_lignum>  (221) 
19

>  <i_i_glide_rotatable_bonds>  (221) 
1

>  <r_i_docking_score>  (221) 
-2.68165

>  <r_i_glide_ligand_efficiency>  (221) 
-0.178777

>  <r_i_glide_ligand_efficiency_sa>  (221) 
-0.440902

>  <r_i_glide_ligand_efficiency_ln>  (221) 
-0.723198

>  <r_i_glide_gscore>  (221) 
-2.68165

>  <r_i_glide_lipo>  (221) 
-0.182364

>  <r_i_glide_hbond>  (221) 
-0.147729

>  <r_i_glide_metal>  (221) 
-0

>  <r_i_glide_rewards>  (221) 
-1.92772

>  <r_i_glide_evdw>  (221) 
-11.9993

>  <r_i_glide_ecoul>  (221) 
-0.863121

>  <r_i_glide_erotb>  (221) 
0.355422

>  <r_i_glide_esite>  (221) 
-0.0498305

>  <r_i_glide_emodel>  (221) 
-18.6073

>  <r_i_glide_energy>  (221) 
-12.8625

>  <r_i_glide_einternal>  (221) 
0.540004

>  <r_i_glide_intrahb_reward>  (221) 
-0

>  <i_i_glide_confnum>  (221) 
1

>  <i_i_glide_posenum>  (221) 
9

>  <r_i_glide_eff_state_penalty>  (221) 
0

>  <ligand_id>  (221) 
66

>  <original_smiles>  (221) 
CN=C1NC(=O)C(=CC=C2C=CC=C2)S1

>  <smiles>  (221) 
[H]C1=C([H])C(=C([H])C([H])=C2SC(=NC([H])([H])[H])[N-]C2=O)C([H])=C1[H]

$$$$
66:8:0
     RDKit          3D

 24 25  0  0  1  0  0  0  0  0999 V2000
    0.9204   -1.0122    9.2300 C   0  0  0  0  0  0  0  0  0  0  0  0
    1.5010   -1.9653    8.3010 N   0  0  0  0  0  0  0  0  0  0  0  0
    0.7531   -2.8627    7.7871 C   0  0  0  0  0  0  0  0  0  0  0  0
   -0.5784   -3.0566    7.9985 N   0  0  0  0  0  0  0  0  0  0  0  0
   -1.1269   -4.0507    7.2526 C   0  0  0  0  0  0  0  0  0  0  0  0
   -2.3276   -4.3102    7.2599 O   0  0  0  0  0  0  0  0  0  0  0  0
   -0.1976   -4.7858    6.4038 C   0  0  0  0  0  0  0  0  0  0  0  0
   -0.5462   -5.8245    5.6151 C   0  0  0  0  0  0  0  0  0  0  0  0
    0.3917   -6.5613    4.7897 C   0  0  0  0  0  0  0  0  0  0  0  0
    0.0563   -7.5837    3.9836 C   0  0  0  0  0  0  0  0  0  0  0  0
    0.9748   -8.3358    3.1618 C   0  0  0  0  0  0  0  0  0  0  0  0
    0.2702   -9.2675    2.5069 C   0  0  0  0  0  0  0  0  0  0  0  0
   -1.1240   -9.1513    2.8796 C   0  0  0  0  0  0  0  0  0  0  0  0
   -1.2571   -8.1497    3.7600 C   0  0  0  0  0  0  0  0  0  0  0  0
    1.3890   -4.0532    6.6258 S   0  0  0  0  0  0  0  0  0  0  0  0
    1.6882   -0.3382    9.6095 H   0  0  0  0  0  0  0  0  0  0  0  0
    0.4643   -1.4982   10.0980 H   0  0  0  0  0  0  0  0  0  0  0  0
    0.1561   -0.3919    8.7550 H   0  0  0  0  0  0  0  0  0  0  0  0
   -1.5822   -6.1305    5.6121 H   0  0  0  0  0  0  0  0  0  0  0  0
    1.4344   -6.2840    4.8293 H   0  0  0  0  0  0  0  0  0  0  0  0
    2.0439   -8.1810    3.0890 H   0  0  0  0  0  0  0  0  0  0  0  0
    0.6783   -9.9942    1.8184 H   0  0  0  0  0  0  0  0  0  0  0  0
   -1.9215   -9.7851    2.5207 H   0  0  0  0  0  0  0  0  0  0  0  0
   -2.1833   -7.8449    4.2266 H   0  0  0  0  0  0  0  0  0  0  0  0
  1  2  1  0
  1 16  1  0
  1 17  1  0
  1 18  1  0
  2  3  2  3
  3 15  1  0
  3  4  1  0
  4  5  1  0
  5  6  2  0
  5  7  1  0
  7  8  2  3
  7 15  1  0
  8  9  1  0
  8 19  1  0
  9 10  2  3
  9 20  1  0
 10 14  1  0
 10 11  1  0
 11 12  2  0
 11 21  1  0
 12 13  1  0
 12 22  1  0
 13 14  2  0
 13 23  1  0
 14 24  1  0
M  CHG  1   4  -1
M  END
>  <i_m_ct_stereo_status>  (222) 
1

>  <s_m_source_file>  (222) 
/var/tmp/pbs.5076255.sched01/tmpi2d1958y/88otlks1nw.sdf

>  <i_m_source_file_index>  (222) 
20

>  <i_lp_mmshare_version>  (222) 
48012

>  <i_f3d_flags>  (222) 
0

>  <s_epik_input>  (222) 
W0NIM10vTj1DMVxbTkhdQyg9TykvQyhTMSk9W0NIXVxbQ0hdPUMyW0NIXT1bQ0hdW0NIXT1bQ0hdMg==

>  <s_epik_cmdline>  (222) 
J2VwaWtfcHl0aG9uJywgJy1waHQnLCAnMi4wJywgJy1waCcsICc3LjAnLCAnLXRuJywgJzgnLCAnLW1hJywgJzIwMCcsICctaW1hZScsICc8aW5maWxlLm1hZT4nLCAnLW9tYWUnLCAnPG91dGZpbGUubWFlPic=

>  <r_epik_Ionization_Penalty>  (222) 
1.41153

>  <r_epik_Ionization_Penalty_Charging>  (222) 
0.849572

>  <r_epik_Ionization_Penalty_Neutral>  (222) 
0.56196

>  <r_epik_State_Penalty>  (222) 
1.06994

>  <r_epik_Charging_Adjusted_Penalty>  (222) 
1.91952

>  <i_epik_Tot_Q>  (222) 
-1

>  <i_epik_Tot_abs_Q>  (222) 
1

>  <s_epik_Chemistry_Notes>  (222) 
This compound has an imine and may undergo hydrolysis.

>  <s_lp_Force_Field>  (222) 
OPLS3e

>  <r_lp_Energy>  (222) 
14.4983

>  <b_lp_Chiralities_Consistent>  (222) 
1

>  <s_lp_Variant>  (222) 
66:0-9

>  <s_i_glide_gridfile>  (222) 
pfpi4k_grid

>  <i_i_glide_lignum>  (222) 
20

>  <i_i_glide_rotatable_bonds>  (222) 
1

>  <r_i_docking_score>  (222) 
-2.72943

>  <r_i_glide_ligand_efficiency>  (222) 
-0.181962

>  <r_i_glide_ligand_efficiency_sa>  (222) 
-0.448756

>  <r_i_glide_ligand_efficiency_ln>  (222) 
-0.736081

>  <r_i_glide_gscore>  (222) 
-2.72943

>  <r_i_glide_lipo>  (222) 
0

>  <r_i_glide_hbond>  (222) 
-0.135957

>  <r_i_glide_metal>  (222) 
-0

>  <r_i_glide_rewards>  (222) 
-1.92772

>  <r_i_glide_evdw>  (222) 
-12.7707

>  <r_i_glide_ecoul>  (222) 
-2.28607

>  <r_i_glide_erotb>  (222) 
0.355422

>  <r_i_glide_esite>  (222) 
-0.0397281

>  <r_i_glide_emodel>  (222) 
-19.8361

>  <r_i_glide_energy>  (222) 
-15.0567

>  <r_i_glide_einternal>  (222) 
0.0128286

>  <r_i_glide_intrahb_reward>  (222) 
-0

>  <i_i_glide_confnum>  (222) 
4

>  <i_i_glide_posenum>  (222) 
33

>  <r_i_glide_eff_state_penalty>  (222) 
0

>  <ligand_id>  (222) 
66

>  <original_smiles>  (222) 
CN=C1NC(=O)C(=CC=C2C=CC=C2)S1

>  <smiles>  (222) 
[H]C1=C([H])C(=C([H])C([H])=C2SC(=NC([H])([H])[H])[N-]C2=O)C([H])=C1[H]

$$$$
66:8:1
     RDKit          3D

 24 25  0  0  1  0  0  0  0  0999 V2000
    1.6696   -7.3069    3.9785 C   0  0  0  0  0  0  0  0  0  0  0  0
    1.7050   -6.9895    2.5681 N   0  0  0  0  0  0  0  0  0  0  0  0
    2.1537   -5.8584    2.1983 C   0  0  0  0  0  0  0  0  0  0  0  0
    2.5964   -4.8233    2.9663 N   0  0  0  0  0  0  0  0  0  0  0  0
    3.0157   -3.7384    2.2679 C   0  0  0  0  0  0  0  0  0  0  0  0
    3.4670   -2.7201    2.7905 O   0  0  0  0  0  0  0  0  0  0  0  0
    2.8939   -3.8543    0.8158 C   0  0  0  0  0  0  0  0  0  0  0  0
    3.2322   -2.8769   -0.0543 C   0  0  0  0  0  0  0  0  0  0  0  0
    3.1065   -2.9769   -1.4992 C   0  0  0  0  0  0  0  0  0  0  0  0
    3.4548   -2.0103   -2.3692 C   0  0  0  0  0  0  0  0  0  0  0  0
    3.3302   -2.0857   -3.8081 C   0  0  0  0  0  0  0  0  0  0  0  0
    3.7695   -0.9268   -4.3243 C   0  0  0  0  0  0  0  0  0  0  0  0
    4.1893   -0.0645   -3.2402 C   0  0  0  0  0  0  0  0  0  0  0  0
    4.0092   -0.7066   -2.0779 C   0  0  0  0  0  0  0  0  0  0  0  0
    2.2492   -5.4559    0.4786 S   0  0  0  0  0  0  0  0  0  0  0  0
    1.2756   -8.3120    4.1330 H   0  0  0  0  0  0  0  0  0  0  0  0
    1.0344   -6.6102    4.5261 H   0  0  0  0  0  0  0  0  0  0  0  0
    2.6678   -7.2728    4.4176 H   0  0  0  0  0  0  0  0  0  0  0  0
    3.6182   -1.9542    0.3511 H   0  0  0  0  0  0  0  0  0  0  0  0
    2.6970   -3.8790   -1.9223 H   0  0  0  0  0  0  0  0  0  0  0  0
    2.9365   -2.9256   -4.3667 H   0  0  0  0  0  0  0  0  0  0  0  0
    3.7890   -0.6639   -5.3736 H   0  0  0  0  0  0  0  0  0  0  0  0
    4.5578    0.9458   -3.3432 H   0  0  0  0  0  0  0  0  0  0  0  0
    4.2151   -0.2984   -1.0983 H   0  0  0  0  0  0  0  0  0  0  0  0
  1  2  1  0
  1 16  1  0
  1 17  1  0
  1 18  1  0
  2  3  2  3
  3 15  1  0
  3  4  1  0
  4  5  1  0
  5  6  2  0
  5  7  1  0
  7  8  2  3
  7 15  1  0
  8  9  1  0
  8 19  1  0
  9 10  2  3
  9 20  1  0
 10 14  1  0
 10 11  1  0
 11 12  2  0
 11 21  1  0
 12 13  1  0
 12 22  1  0
 13 14  2  0
 13 23  1  0
 14 24  1  0
M  CHG  1   4  -1
M  END
>  <i_m_ct_stereo_status>  (223) 
1

>  <s_m_source_file>  (223) 
/var/tmp/pbs.5076255.sched01/tmpi2d1958y/88otlks1nw.sdf

>  <i_m_source_file_index>  (223) 
20

>  <i_lp_mmshare_version>  (223) 
48012

>  <i_f3d_flags>  (223) 
0

>  <s_epik_input>  (223) 
W0NIM10vTj1DMVxbTkhdQyg9TykvQyhTMSk9W0NIXVxbQ0hdPUMyW0NIXT1bQ0hdW0NIXT1bQ0hdMg==

>  <s_epik_cmdline>  (223) 
J2VwaWtfcHl0aG9uJywgJy1waHQnLCAnMi4wJywgJy1waCcsICc3LjAnLCAnLXRuJywgJzgnLCAnLW1hJywgJzIwMCcsICctaW1hZScsICc8aW5maWxlLm1hZT4nLCAnLW9tYWUnLCAnPG91dGZpbGUubWFlPic=

>  <r_epik_Ionization_Penalty>  (223) 
1.41153

>  <r_epik_Ionization_Penalty_Charging>  (223) 
0.849572

>  <r_epik_Ionization_Penalty_Neutral>  (223) 
0.56196

>  <r_epik_State_Penalty>  (223) 
1.06994

>  <r_epik_Charging_Adjusted_Penalty>  (223) 
1.91952

>  <i_epik_Tot_Q>  (223) 
-1

>  <i_epik_Tot_abs_Q>  (223) 
1

>  <s_epik_Chemistry_Notes>  (223) 
This compound has an imine and may undergo hydrolysis.

>  <s_lp_Force_Field>  (223) 
OPLS3e

>  <r_lp_Energy>  (223) 
14.4983

>  <b_lp_Chiralities_Consistent>  (223) 
1

>  <s_lp_Variant>  (223) 
66:0-9

>  <s_i_glide_gridfile>  (223) 
pfpi4k_grid

>  <i_i_glide_lignum>  (223) 
20

>  <i_i_glide_rotatable_bonds>  (223) 
1

>  <r_i_docking_score>  (223) 
-2.64689

>  <r_i_glide_ligand_efficiency>  (223) 
-0.176459

>  <r_i_glide_ligand_efficiency_sa>  (223) 
-0.435186

>  <r_i_glide_ligand_efficiency_ln>  (223) 
-0.713822

>  <r_i_glide_gscore>  (223) 
-2.64689

>  <r_i_glide_lipo>  (223) 
-0.34565

>  <r_i_glide_hbond>  (223) 
0

>  <r_i_glide_metal>  (223) 
-0

>  <r_i_glide_rewards>  (223) 
-1.92772

>  <r_i_glide_evdw>  (223) 
-17.2408

>  <r_i_glide_ecoul>  (223) 
1.00416

>  <r_i_glide_erotb>  (223) 
0.355422

>  <r_i_glide_esite>  (223) 
-0.0175233

>  <r_i_glide_emodel>  (223) 
-20.8982

>  <r_i_glide_energy>  (223) 
-16.2367

>  <r_i_glide_einternal>  (223) 
8.65986e-05

>  <r_i_glide_intrahb_reward>  (223) 
-0

>  <i_i_glide_confnum>  (223) 
1

>  <i_i_glide_posenum>  (223) 
2

>  <r_i_glide_eff_state_penalty>  (223) 
0

>  <ligand_id>  (223) 
66

>  <original_smiles>  (223) 
CN=C1NC(=O)C(=CC=C2C=CC=C2)S1

>  <smiles>  (223) 
[H]C1=C([H])C(=C([H])C([H])=C2SC(=NC([H])([H])[H])[N-]C2=O)C([H])=C1[H]

$$$$
66:8:2
     RDKit          3D

 24 25  0  0  1  0  0  0  0  0999 V2000
    4.6314   -4.7957    4.2289 C   0  0  0  0  0  0  0  0  0  0  0  0
    4.1075   -4.7795    2.8763 N   0  0  0  0  0  0  0  0  0  0  0  0
    4.3755   -3.7870    2.1253 C   0  0  0  0  0  0  0  0  0  0  0  0
    5.1122   -2.6744    2.4119 N   0  0  0  0  0  0  0  0  0  0  0  0
    5.2046   -1.7765    1.3947 C   0  0  0  0  0  0  0  0  0  0  0  0
    5.8082   -0.7063    1.4634 O   0  0  0  0  0  0  0  0  0  0  0  0
    4.5232   -2.1635    0.1675 C   0  0  0  0  0  0  0  0  0  0  0  0
    4.4866   -1.4134   -0.9521 C   0  0  0  0  0  0  0  0  0  0  0  0
    3.8045   -1.7979   -2.1732 C   0  0  0  0  0  0  0  0  0  0  0  0
    3.6857   -1.0037   -3.2512 C   0  0  0  0  0  0  0  0  0  0  0  0
    3.0117   -1.3511   -4.4684 C   0  0  0  0  0  0  0  0  0  0  0  0
    3.0593   -0.2933   -5.2924 C   0  0  0  0  0  0  0  0  0  0  0  0
    3.7690    0.7690   -4.6442 C   0  0  0  0  0  0  0  0  0  0  0  0
    4.1523    0.3435   -3.4357 C   0  0  0  0  0  0  0  0  0  0  0  0
    3.7681   -3.7225    0.4636 S   0  0  0  0  0  0  0  0  0  0  0  0
    4.3286   -5.7042    4.7497 H   0  0  0  0  0  0  0  0  0  0  0  0
    4.2667   -3.9464    4.8081 H   0  0  0  0  0  0  0  0  0  0  0  0
    5.7220   -4.7599    4.2370 H   0  0  0  0  0  0  0  0  0  0  0  0
    5.0036   -0.4655   -0.9447 H   0  0  0  0  0  0  0  0  0  0  0  0
    3.3617   -2.7845   -2.2381 H   0  0  0  0  0  0  0  0  0  0  0  0
    2.5349   -2.3023   -4.6674 H   0  0  0  0  0  0  0  0  0  0  0  0
    2.6332   -0.2372   -6.2806 H   0  0  0  0  0  0  0  0  0  0  0  0
    3.8980    1.7466   -5.0545 H   0  0  0  0  0  0  0  0  0  0  0  0
    4.6634    0.9385   -2.7210 H   0  0  0  0  0  0  0  0  0  0  0  0
  1  2  1  0
  1 16  1  0
  1 17  1  0
  1 18  1  0
  2  3  2  3
  3 15  1  0
  3  4  1  0
  4  5  1  0
  5  6  2  0
  5  7  1  0
  7  8  2  3
  7 15  1  0
  8  9  1  0
  8 19  1  0
  9 10  2  3
  9 20  1  0
 10 14  1  0
 10 11  1  0
 11 12  2  0
 11 21  1  0
 12 13  1  0
 12 22  1  0
 13 14  2  0
 13 23  1  0
 14 24  1  0
M  CHG  1   4  -1
M  END
>  <i_m_ct_stereo_status>  (224) 
1

>  <s_m_source_file>  (224) 
/var/tmp/pbs.5076255.sched01/tmpi2d1958y/88otlks1nw.sdf

>  <i_m_source_file_index>  (224) 
20

>  <i_lp_mmshare_version>  (224) 
48012

>  <i_f3d_flags>  (224) 
0

>  <s_epik_input>  (224) 
W0NIM10vTj1DMVxbTkhdQyg9TykvQyhTMSk9W0NIXVxbQ0hdPUMyW0NIXT1bQ0hdW0NIXT1bQ0hdMg==

>  <s_epik_cmdline>  (224) 
J2VwaWtfcHl0aG9uJywgJy1waHQnLCAnMi4wJywgJy1waCcsICc3LjAnLCAnLXRuJywgJzgnLCAnLW1hJywgJzIwMCcsICctaW1hZScsICc8aW5maWxlLm1hZT4nLCAnLW9tYWUnLCAnPG91dGZpbGUubWFlPic=

>  <r_epik_Ionization_Penalty>  (224) 
1.41153

>  <r_epik_Ionization_Penalty_Charging>  (224) 
0.849572

>  <r_epik_Ionization_Penalty_Neutral>  (224) 
0.56196

>  <r_epik_State_Penalty>  (224) 
1.06994

>  <r_epik_Charging_Adjusted_Penalty>  (224) 
1.91952

>  <i_epik_Tot_Q>  (224) 
-1

>  <i_epik_Tot_abs_Q>  (224) 
1

>  <s_epik_Chemistry_Notes>  (224) 
This compound has an imine and may undergo hydrolysis.

>  <s_lp_Force_Field>  (224) 
OPLS3e

>  <r_lp_Energy>  (224) 
14.4983

>  <b_lp_Chiralities_Consistent>  (224) 
1

>  <s_lp_Variant>  (224) 
66:0-9

>  <s_i_glide_gridfile>  (224) 
pfpi4k_grid

>  <i_i_glide_lignum>  (224) 
20

>  <i_i_glide_rotatable_bonds>  (224) 
1

>  <r_i_docking_score>  (224) 
-2.62852

>  <r_i_glide_ligand_efficiency>  (224) 
-0.175234

>  <r_i_glide_ligand_efficiency_sa>  (224) 
-0.432165

>  <r_i_glide_ligand_efficiency_ln>  (224) 
-0.708867

>  <r_i_glide_gscore>  (224) 
-2.62852

>  <r_i_glide_lipo>  (224) 
-0.211724

>  <r_i_glide_hbond>  (224) 
0

>  <r_i_glide_metal>  (224) 
-0

>  <r_i_glide_rewards>  (224) 
-2.05214

>  <r_i_glide_evdw>  (224) 
-14.7739

>  <r_i_glide_ecoul>  (224) 
0.124153

>  <r_i_glide_erotb>  (224) 
0.355422

>  <r_i_glide_esite>  (224) 
0

>  <r_i_glide_emodel>  (224) 
-19.1696

>  <r_i_glide_energy>  (224) 
-14.6498

>  <r_i_glide_einternal>  (224) 
0.175064

>  <r_i_glide_intrahb_reward>  (224) 
-0

>  <i_i_glide_confnum>  (224) 
1

>  <i_i_glide_posenum>  (224) 
6

>  <r_i_glide_eff_state_penalty>  (224) 
0

>  <ligand_id>  (224) 
66

>  <original_smiles>  (224) 
CN=C1NC(=O)C(=CC=C2C=CC=C2)S1

>  <smiles>  (224) 
[H]C1=C([H])C(=C([H])C([H])=C2SC(=NC([H])([H])[H])[N-]C2=O)C([H])=C1[H]

$$$$
66:9:0
     RDKit          3D

 24 25  0  0  1  0  0  0  0  0999 V2000
    5.1807   -7.7615    1.8788 C   0  0  0  0  0  0  0  0  0  0  0  0
    6.2605   -6.8045    1.9986 N   0  0  0  0  0  0  0  0  0  0  0  0
    6.2692   -5.7532    1.2795 C   0  0  0  0  0  0  0  0  0  0  0  0
    7.2501   -4.8101    1.3074 N   0  0  0  0  0  0  0  0  0  0  0  0
    7.0668   -3.7649    0.4672 C   0  0  0  0  0  0  0  0  0  0  0  0
    7.8416   -2.8138    0.3750 O   0  0  0  0  0  0  0  0  0  0  0  0
    5.8604   -3.8352   -0.3529 C   0  0  0  0  0  0  0  0  0  0  0  0
    5.5070   -2.8921   -1.2518 C   0  0  0  0  0  0  0  0  0  0  0  0
    4.3199   -2.9474   -2.0844 C   0  0  0  0  0  0  0  0  0  0  0  0
    3.8990   -1.9414   -2.8718 C   0  0  0  0  0  0  0  0  0  0  0  0
    2.7288   -1.9685   -3.7152 C   0  0  0  0  0  0  0  0  0  0  0  0
    2.6331   -0.7752   -4.3228 C   0  0  0  0  0  0  0  0  0  0  0  0
    3.7344    0.0596   -3.8991 C   0  0  0  0  0  0  0  0  0  0  0  0
    4.4859   -0.6312   -3.0300 C   0  0  0  0  0  0  0  0  0  0  0  0
    5.0130   -5.3099    0.0927 S   0  0  0  0  0  0  0  0  0  0  0  0
    5.3450   -8.5872    2.5739 H   0  0  0  0  0  0  0  0  0  0  0  0
    5.1307   -8.1900    0.8760 H   0  0  0  0  0  0  0  0  0  0  0  0
    4.2142   -7.3188    2.1261 H   0  0  0  0  0  0  0  0  0  0  0  0
    6.1675   -2.0463   -1.3657 H   0  0  0  0  0  0  0  0  0  0  0  0
    3.7387   -3.8566   -2.0962 H   0  0  0  0  0  0  0  0  0  0  0  0
    2.0363   -2.7920   -3.8255 H   0  0  0  0  0  0  0  0  0  0  0  0
    1.8539   -0.4767   -5.0121 H   0  0  0  0  0  0  0  0  0  0  0  0
    3.8954    1.0842   -4.2101 H   0  0  0  0  0  0  0  0  0  0  0  0
    5.3598   -0.2592   -2.5190 H   0  0  0  0  0  0  0  0  0  0  0  0
  1  2  1  0
  1 16  1  0
  1 17  1  0
  1 18  1  0
  2  3  2  3
  3 15  1  0
  3  4  1  0
  4  5  1  0
  5  6  2  0
  5  7  1  0
  7  8  2  3
  7 15  1  0
  8  9  1  0
  8 19  1  0
  9 10  2  3
  9 20  1  0
 10 14  1  0
 10 11  1  0
 11 12  2  0
 11 21  1  0
 12 13  1  0
 12 22  1  0
 13 14  2  0
 13 23  1  0
 14 24  1  0
M  CHG  1   4  -1
M  END
>  <i_m_ct_stereo_status>  (225) 
1

>  <s_m_source_file>  (225) 
/var/tmp/pbs.5076255.sched01/tmpi2d1958y/88otlks1nw.sdf

>  <i_m_source_file_index>  (225) 
21

>  <i_lp_mmshare_version>  (225) 
48012

>  <i_f3d_flags>  (225) 
0

>  <s_epik_input>  (225) 
W0NIM10vTj1DMVxbTkhdQyg9TykvQyhTMSk9W0NIXVxbQ0hdPUMyW0NIXT1bQ0hdW0NIXT1bQ0hdMg==

>  <s_epik_cmdline>  (225) 
J2VwaWtfcHl0aG9uJywgJy1waHQnLCAnMi4wJywgJy1waCcsICc3LjAnLCAnLXRuJywgJzgnLCAnLW1hJywgJzIwMCcsICctaW1hZScsICc8aW5maWxlLm1hZT4nLCAnLW9tYWUnLCAnPG91dGZpbGUubWFlPic=

>  <r_epik_Ionization_Penalty>  (225) 
1.41153

>  <r_epik_Ionization_Penalty_Charging>  (225) 
0.849572

>  <r_epik_Ionization_Penalty_Neutral>  (225) 
0.56196

>  <r_epik_State_Penalty>  (225) 
1.06994

>  <r_epik_Charging_Adjusted_Penalty>  (225) 
1.91952

>  <i_epik_Tot_Q>  (225) 
-1

>  <i_epik_Tot_abs_Q>  (225) 
1

>  <s_epik_Chemistry_Notes>  (225) 
This compound has an imine and may undergo hydrolysis.

>  <s_lp_Force_Field>  (225) 
OPLS3e

>  <r_lp_Energy>  (225) 
15.9841

>  <b_lp_Chiralities_Consistent>  (225) 
1

>  <s_lp_Variant>  (225) 
66:0-10

>  <s_i_glide_gridfile>  (225) 
pfpi4k_grid

>  <i_i_glide_lignum>  (225) 
21

>  <i_i_glide_rotatable_bonds>  (225) 
1

>  <r_i_docking_score>  (225) 
-3.54972

>  <r_i_glide_ligand_efficiency>  (225) 
-0.236648

>  <r_i_glide_ligand_efficiency_sa>  (225) 
-0.583624

>  <r_i_glide_ligand_efficiency_ln>  (225) 
-0.957301

>  <r_i_glide_gscore>  (225) 
-3.54972

>  <r_i_glide_lipo>  (225) 
-0.643811

>  <r_i_glide_hbond>  (225) 
0

>  <r_i_glide_metal>  (225) 
-0

>  <r_i_glide_rewards>  (225) 
-2.22751

>  <r_i_glide_evdw>  (225) 
-19.7205

>  <r_i_glide_ecoul>  (225) 
-0.318665

>  <r_i_glide_erotb>  (225) 
0.355422

>  <r_i_glide_esite>  (225) 
0

>  <r_i_glide_emodel>  (225) 
-27.0739

>  <r_i_glide_energy>  (225) 
-20.0391

>  <r_i_glide_einternal>  (225) 
0.264674

>  <r_i_glide_intrahb_reward>  (225) 
-0

>  <i_i_glide_confnum>  (225) 
1

>  <i_i_glide_posenum>  (225) 
4

>  <r_i_glide_eff_state_penalty>  (225) 
0

>  <ligand_id>  (225) 
66

>  <original_smiles>  (225) 
CN=C1NC(=O)C(=CC=C2C=CC=C2)S1

>  <smiles>  (225) 
[H]C1=C([H])C(=C([H])C([H])=C2SC(=NC([H])([H])[H])[N-]C2=O)C([H])=C1[H]

$$$$
66:9:1
     RDKit          3D

 24 25  0  0  1  0  0  0  0  0999 V2000
    5.8774   -7.0100    3.3620 C   0  0  0  0  0  0  0  0  0  0  0  0
    4.4871   -7.2431    3.0357 N   0  0  0  0  0  0  0  0  0  0  0  0
    3.9067   -6.5430    2.1467 C   0  0  0  0  0  0  0  0  0  0  0  0
    2.6023   -6.6913    1.7927 N   0  0  0  0  0  0  0  0  0  0  0  0
    2.1802   -5.8529    0.8158 C   0  0  0  0  0  0  0  0  0  0  0  0
    1.0297   -5.8572    0.3677 O   0  0  0  0  0  0  0  0  0  0  0  0
    3.1775   -4.9040    0.3275 C   0  0  0  0  0  0  0  0  0  0  0  0
    2.9490   -3.9936   -0.6402 C   0  0  0  0  0  0  0  0  0  0  0  0
    3.9354   -3.0553   -1.1343 C   0  0  0  0  0  0  0  0  0  0  0  0
    3.7384   -2.2342   -2.1820 C   0  0  0  0  0  0  0  0  0  0  0  0
    4.6933   -1.2793   -2.6908 C   0  0  0  0  0  0  0  0  0  0  0  0
    4.1419   -0.6604   -3.7462 C   0  0  0  0  0  0  0  0  0  0  0  0
    2.8164   -1.1919   -3.9530 C   0  0  0  0  0  0  0  0  0  0  0  0
    2.5707   -2.1293   -3.0250 C   0  0  0  0  0  0  0  0  0  0  0  0
    4.6702   -5.2372    1.2067 S   0  0  0  0  0  0  0  0  0  0  0  0
    6.1921   -7.7085    4.1416 H   0  0  0  0  0  0  0  0  0  0  0  0
    6.0339   -5.9998    3.7473 H   0  0  0  0  0  0  0  0  0  0  0  0
    6.5267   -7.1711    2.4985 H   0  0  0  0  0  0  0  0  0  0  0  0
    1.9609   -3.9611   -1.0682 H   0  0  0  0  0  0  0  0  0  0  0  0
    4.8851   -2.9884   -0.6278 H   0  0  0  0  0  0  0  0  0  0  0  0
    5.6825   -1.1005   -2.2914 H   0  0  0  0  0  0  0  0  0  0  0  0
    4.5975    0.1072   -4.3546 H   0  0  0  0  0  0  0  0  0  0  0  0
    2.1289   -0.8647   -4.7217 H   0  0  0  0  0  0  0  0  0  0  0  0
    1.6473   -2.6815   -2.9199 H   0  0  0  0  0  0  0  0  0  0  0  0
  1  2  1  0
  1 16  1  0
  1 17  1  0
  1 18  1  0
  2  3  2  3
  3 15  1  0
  3  4  1  0
  4  5  1  0
  5  6  2  0
  5  7  1  0
  7  8  2  3
  7 15  1  0
  8  9  1  0
  8 19  1  0
  9 10  2  3
  9 20  1  0
 10 14  1  0
 10 11  1  0
 11 12  2  0
 11 21  1  0
 12 13  1  0
 12 22  1  0
 13 14  2  0
 13 23  1  0
 14 24  1  0
M  CHG  1   4  -1
M  END
>  <i_m_ct_stereo_status>  (226) 
1

>  <s_m_source_file>  (226) 
/var/tmp/pbs.5076255.sched01/tmpi2d1958y/88otlks1nw.sdf

>  <i_m_source_file_index>  (226) 
21

>  <i_lp_mmshare_version>  (226) 
48012

>  <i_f3d_flags>  (226) 
0

>  <s_epik_input>  (226) 
W0NIM10vTj1DMVxbTkhdQyg9TykvQyhTMSk9W0NIXVxbQ0hdPUMyW0NIXT1bQ0hdW0NIXT1bQ0hdMg==

>  <s_epik_cmdline>  (226) 
J2VwaWtfcHl0aG9uJywgJy1waHQnLCAnMi4wJywgJy1waCcsICc3LjAnLCAnLXRuJywgJzgnLCAnLW1hJywgJzIwMCcsICctaW1hZScsICc8aW5maWxlLm1hZT4nLCAnLW9tYWUnLCAnPG91dGZpbGUubWFlPic=

>  <r_epik_Ionization_Penalty>  (226) 
1.41153

>  <r_epik_Ionization_Penalty_Charging>  (226) 
0.849572

>  <r_epik_Ionization_Penalty_Neutral>  (226) 
0.56196

>  <r_epik_State_Penalty>  (226) 
1.06994

>  <r_epik_Charging_Adjusted_Penalty>  (226) 
1.91952

>  <i_epik_Tot_Q>  (226) 
-1

>  <i_epik_Tot_abs_Q>  (226) 
1

>  <s_epik_Chemistry_Notes>  (226) 
This compound has an imine and may undergo hydrolysis.

>  <s_lp_Force_Field>  (226) 
OPLS3e

>  <r_lp_Energy>  (226) 
15.9841

>  <b_lp_Chiralities_Consistent>  (226) 
1

>  <s_lp_Variant>  (226) 
66:0-10

>  <s_i_glide_gridfile>  (226) 
pfpi4k_grid

>  <i_i_glide_lignum>  (226) 
21

>  <i_i_glide_rotatable_bonds>  (226) 
1

>  <r_i_docking_score>  (226) 
-3.39634

>  <r_i_glide_ligand_efficiency>  (226) 
-0.226423

>  <r_i_glide_ligand_efficiency_sa>  (226) 
-0.558407

>  <r_i_glide_ligand_efficiency_ln>  (226) 
-0.915938

>  <r_i_glide_gscore>  (226) 
-3.39634

>  <r_i_glide_lipo>  (226) 
-0.363798

>  <r_i_glide_hbond>  (226) 
-0.181315

>  <r_i_glide_metal>  (226) 
-0

>  <r_i_glide_rewards>  (226) 
-1.94912

>  <r_i_glide_evdw>  (226) 
-15.211

>  <r_i_glide_ecoul>  (226) 
-3.04531

>  <r_i_glide_erotb>  (226) 
0.355422

>  <r_i_glide_esite>  (226) 
-0.0401799

>  <r_i_glide_emodel>  (226) 
-25.0257

>  <r_i_glide_energy>  (226) 
-18.2564

>  <r_i_glide_einternal>  (226) 
0.183444

>  <r_i_glide_intrahb_reward>  (226) 
-0

>  <i_i_glide_confnum>  (226) 
1

>  <i_i_glide_posenum>  (226) 
35

>  <r_i_glide_eff_state_penalty>  (226) 
0

>  <ligand_id>  (226) 
66

>  <original_smiles>  (226) 
CN=C1NC(=O)C(=CC=C2C=CC=C2)S1

>  <smiles>  (226) 
[H]C1=C([H])C(=C([H])C([H])=C2SC(=NC([H])([H])[H])[N-]C2=O)C([H])=C1[H]

$$$$
66:9:2
     RDKit          3D

 24 25  0  0  1  0  0  0  0  0999 V2000
    2.7043    0.0440    7.8212 C   0  0  0  0  0  0  0  0  0  0  0  0
    1.5301   -0.7651    7.5628 N   0  0  0  0  0  0  0  0  0  0  0  0
    0.6080   -0.3283    6.8034 C   0  0  0  0  0  0  0  0  0  0  0  0
   -0.5391   -1.0079    6.5187 N   0  0  0  0  0  0  0  0  0  0  0  0
   -1.3616   -0.3851    5.6453 C   0  0  0  0  0  0  0  0  0  0  0  0
   -2.4195   -0.8788    5.2604 O   0  0  0  0  0  0  0  0  0  0  0  0
   -0.9310    0.9414    5.2105 C   0  0  0  0  0  0  0  0  0  0  0  0
   -1.6540    1.7440    4.4016 C   0  0  0  0  0  0  0  0  0  0  0  0
   -1.2588    3.0741    3.9630 C   0  0  0  0  0  0  0  0  0  0  0  0
   -2.0337    3.9042    3.2373 C   0  0  0  0  0  0  0  0  0  0  0  0
   -1.6556    5.2194    2.7746 C   0  0  0  0  0  0  0  0  0  0  0  0
   -2.6836    5.7389    2.0803 C   0  0  0  0  0  0  0  0  0  0  0  0
   -3.7726    4.7786    2.0838 C   0  0  0  0  0  0  0  0  0  0  0  0
   -3.3842    3.6839    2.7610 C   0  0  0  0  0  0  0  0  0  0  0  0
    0.6235    1.2507    5.9699 S   0  0  0  0  0  0  0  0  0  0  0  0
    3.3772   -0.4925    8.4934 H   0  0  0  0  0  0  0  0  0  0  0  0
    2.4443    0.9836    8.3112 H   0  0  0  0  0  0  0  0  0  0  0  0
    3.2615    0.2587    6.9081 H   0  0  0  0  0  0  0  0  0  0  0  0
   -2.5900    1.3561    4.0452 H   0  0  0  0  0  0  0  0  0  0  0  0
   -0.2615    3.4135    4.2105 H   0  0  0  0  0  0  0  0  0  0  0  0
   -0.6892    5.6849    2.9265 H   0  0  0  0  0  0  0  0  0  0  0  0
   -2.6856    6.7087    1.5976 H   0  0  0  0  0  0  0  0  0  0  0  0
   -4.7355    4.9128    1.6102 H   0  0  0  0  0  0  0  0  0  0  0  0
   -3.9785    2.7936    2.9171 H   0  0  0  0  0  0  0  0  0  0  0  0
  1  2  1  0
  1 16  1  0
  1 17  1  0
  1 18  1  0
  2  3  2  3
  3 15  1  0
  3  4  1  0
  4  5  1  0
  5  6  2  0
  5  7  1  0
  7  8  2  3
  7 15  1  0
  8  9  1  0
  8 19  1  0
  9 10  2  3
  9 20  1  0
 10 14  1  0
 10 11  1  0
 11 12  2  0
 11 21  1  0
 12 13  1  0
 12 22  1  0
 13 14  2  0
 13 23  1  0
 14 24  1  0
M  CHG  1   4  -1
M  END
>  <i_m_ct_stereo_status>  (227) 
1

>  <s_m_source_file>  (227) 
/var/tmp/pbs.5076255.sched01/tmpi2d1958y/88otlks1nw.sdf

>  <i_m_source_file_index>  (227) 
21

>  <i_lp_mmshare_version>  (227) 
48012

>  <i_f3d_flags>  (227) 
0

>  <s_epik_input>  (227) 
W0NIM10vTj1DMVxbTkhdQyg9TykvQyhTMSk9W0NIXVxbQ0hdPUMyW0NIXT1bQ0hdW0NIXT1bQ0hdMg==

>  <s_epik_cmdline>  (227) 
J2VwaWtfcHl0aG9uJywgJy1waHQnLCAnMi4wJywgJy1waCcsICc3LjAnLCAnLXRuJywgJzgnLCAnLW1hJywgJzIwMCcsICctaW1hZScsICc8aW5maWxlLm1hZT4nLCAnLW9tYWUnLCAnPG91dGZpbGUubWFlPic=

>  <r_epik_Ionization_Penalty>  (227) 
1.41153

>  <r_epik_Ionization_Penalty_Charging>  (227) 
0.849572

>  <r_epik_Ionization_Penalty_Neutral>  (227) 
0.56196

>  <r_epik_State_Penalty>  (227) 
1.06994

>  <r_epik_Charging_Adjusted_Penalty>  (227) 
1.91952

>  <i_epik_Tot_Q>  (227) 
-1

>  <i_epik_Tot_abs_Q>  (227) 
1

>  <s_epik_Chemistry_Notes>  (227) 
This compound has an imine and may undergo hydrolysis.

>  <s_lp_Force_Field>  (227) 
OPLS3e

>  <r_lp_Energy>  (227) 
15.9841

>  <b_lp_Chiralities_Consistent>  (227) 
1

>  <s_lp_Variant>  (227) 
66:0-10

>  <s_i_glide_gridfile>  (227) 
pfpi4k_grid

>  <i_i_glide_lignum>  (227) 
21

>  <i_i_glide_rotatable_bonds>  (227) 
1

>  <r_i_docking_score>  (227) 
-2.9647

>  <r_i_glide_ligand_efficiency>  (227) 
-0.197646

>  <r_i_glide_ligand_efficiency_sa>  (227) 
-0.487438

>  <r_i_glide_ligand_efficiency_ln>  (227) 
-0.79953

>  <r_i_glide_gscore>  (227) 
-2.9647

>  <r_i_glide_lipo>  (227) 
-0.00661808

>  <r_i_glide_hbond>  (227) 
0

>  <r_i_glide_metal>  (227) 
-0

>  <r_i_glide_rewards>  (227) 
-1.92772

>  <r_i_glide_evdw>  (227) 
-13.2524

>  <r_i_glide_ecoul>  (227) 
-4.28722

>  <r_i_glide_erotb>  (227) 
0.355422

>  <r_i_glide_esite>  (227) 
-0.0800781

>  <r_i_glide_emodel>  (227) 
-23.4449

>  <r_i_glide_energy>  (227) 
-17.5396

>  <r_i_glide_einternal>  (227) 
0.136859

>  <r_i_glide_intrahb_reward>  (227) 
-0

>  <i_i_glide_confnum>  (227) 
4

>  <i_i_glide_posenum>  (227) 
2

>  <r_i_glide_eff_state_penalty>  (227) 
0

>  <ligand_id>  (227) 
66

>  <original_smiles>  (227) 
CN=C1NC(=O)C(=CC=C2C=CC=C2)S1

>  <smiles>  (227) 
[H]C1=C([H])C(=C([H])C([H])=C2SC(=NC([H])([H])[H])[N-]C2=O)C([H])=C1[H]

$$$$
67:0:0
     RDKit          3D

 61 65  0  0  1  0  0  0  0  0999 V2000
   -0.9425    3.7992    8.3517 C   0  0  0  0  0  0  0  0  0  0  0  0
    0.0497    3.9738    7.3419 O   0  0  0  0  0  0  0  0  0  0  0  0
   -0.3599    3.5942    6.0256 C   0  0  2  0  0  0  0  0  0  0  0  0
   -0.5202    2.0662    5.8285 C   0  0  1  0  0  0  0  0  0  0  0  0
   -0.9762    1.8549    4.3414 C   0  0  1  0  0  0  0  0  0  0  0  0
   -2.3384    2.2214    4.2409 O   0  0  0  0  0  0  0  0  0  0  0  0
   -0.1600    2.6443    3.2728 C   0  0  1  0  0  0  0  0  0  0  0  0
   -0.1317    4.1594    3.6217 C   0  0  1  0  0  0  0  0  0  0  0  0
   -1.3820    4.8476    3.7158 O   0  0  0  0  0  0  0  0  0  0  0  0
   -2.0906    4.9532    2.4856 C   0  0  0  0  0  0  0  0  0  0  0  0
    0.6499    4.0982    4.9340 C   0  0  2  0  0  0  0  0  0  0  0  0
    1.8443    3.0828    4.6052 C   0  0  1  0  0  0  0  0  0  0  0  0
    3.1722    3.8649    4.2795 C   0  0  0  0  0  0  0  0  0  0  0  0
    3.6306    4.7582    5.2792 O   0  0  0  0  0  0  0  0  0  0  0  0
    2.0618    2.2184    5.9038 C   0  0  1  0  0  0  0  0  0  0  0  0
    2.4772    3.0174    7.0045 O   0  0  0  0  0  0  0  0  0  0  0  0
    0.8076    1.4024    6.3489 C   0  0  2  0  0  0  0  0  0  0  0  0
    0.9936   -0.1555    6.3399 C   0  0  1  0  0  0  0  0  0  0  0  0
    0.0526   -0.8979    7.2963 C   0  0  0  0  0  0  0  0  0  0  0  0
    1.0001   -0.7610    4.9516 C   0  0  2  0  0  0  0  0  0  0  0  0
   -0.2277   -1.2783    4.4902 O   0  0  0  0  0  0  0  0  0  0  0  0
    1.9254   -1.7122    4.2131 C   0  0  0  0  0  0  0  0  0  0  0  0
    2.0710   -0.2227    4.0328 C   0  0  2  0  0  0  0  0  0  0  0  0
    3.4085   -0.1087    4.4739 O   0  0  0  0  0  0  0  0  0  0  0  0
    1.7475    0.7329    2.8772 C   0  0  1  0  0  0  0  0  0  0  0  0
    2.8849    0.5628    1.8328 C   0  0  0  0  0  0  0  0  0  0  0  0
    0.6373    0.1680    2.1848 O   0  0  0  0  0  0  0  0  0  0  0  0
    1.3484    2.2666    3.2807 C   0  0  1  0  0  0  0  0  0  0  0  0
    1.8126    2.9423    2.1146 O   0  0  0  0  0  0  0  0  0  0  0  0
   -0.5353    4.0909    9.3221 H   0  0  0  0  0  0  0  0  0  0  0  0
   -1.2652    2.7599    8.4439 H   0  0  0  0  0  0  0  0  0  0  0  0
   -1.8226    4.4184    8.1601 H   0  0  0  0  0  0  0  0  0  0  0  0
   -1.3220    4.0863    5.8903 H   0  0  0  0  0  0  0  0  0  0  0  0
   -1.3334    1.6956    6.4527 H   0  0  0  0  0  0  0  0  0  0  0  0
   -1.0067    0.8187    4.0712 H   0  0  0  0  0  0  0  0  0  0  0  0
   -2.6989    1.8455    3.4472 H   0  0  0  0  0  0  0  0  0  0  0  0
   -0.5922    2.4879    2.2829 H   0  0  0  0  0  0  0  0  0  0  0  0
    0.4513    4.7463    2.9114 H   0  0  0  0  0  0  0  0  0  0  0  0
   -3.0461    5.4569    2.6277 H   0  0  0  0  0  0  0  0  0  0  0  0
   -2.3227    3.9681    2.0847 H   0  0  0  0  0  0  0  0  0  0  0  0
   -1.5306    5.5429    1.7653 H   0  0  0  0  0  0  0  0  0  0  0  0
    1.0063    5.0941    5.2076 H   0  0  0  0  0  0  0  0  0  0  0  0
    3.9722    3.1535    4.0745 H   0  0  0  0  0  0  0  0  0  0  0  0
    3.0736    4.4989    3.3973 H   0  0  0  0  0  0  0  0  0  0  0  0
    3.7166    4.2599    6.0836 H   0  0  0  0  0  0  0  0  0  0  0  0
    2.9377    1.6060    5.8304 H   0  0  0  0  0  0  0  0  0  0  0  0
    1.7464    3.5887    7.2325 H   0  0  0  0  0  0  0  0  0  0  0  0
    0.7488    1.5653    7.4277 H   0  0  0  0  0  0  0  0  0  0  0  0
    1.9952   -0.3314    6.7342 H   0  0  0  0  0  0  0  0  0  0  0  0
   -0.9844   -0.7379    7.0172 H   0  0  0  0  0  0  0  0  0  0  0  0
    0.1987   -0.5567    8.3180 H   0  0  0  0  0  0  0  0  0  0  0  0
    0.2505   -1.9686    7.2807 H   0  0  0  0  0  0  0  0  0  0  0  0
   -0.1981   -1.1920    3.5416 H   0  0  0  0  0  0  0  0  0  0  0  0
    2.6113   -2.2608    4.8565 H   0  0  0  0  0  0  0  0  0  0  0  0
    1.5919   -2.2638    3.3280 H   0  0  0  0  0  0  0  0  0  0  0  0
    3.9710   -0.1381    3.7151 H   0  0  0  0  0  0  0  0  0  0  0  0
    3.8092    1.0556    2.1221 H   0  0  0  0  0  0  0  0  0  0  0  0
    2.5875    0.9652    0.8756 H   0  0  0  0  0  0  0  0  0  0  0  0
    3.1100   -0.4861    1.6553 H   0  0  0  0  0  0  0  0  0  0  0  0
    0.6214    0.5183    1.2994 H   0  0  0  0  0  0  0  0  0  0  0  0
    1.1161    3.4750    1.7037 H   0  0  0  0  0  0  0  0  0  0  0  0
  1  2  1  0
  1 30  1  0
  1 31  1  0
  1 32  1  0
  2  3  1  0
  3 11  1  0
  3  4  1  0
  3 33  1  6
  4 17  1  0
  4  5  1  0
  4 34  1  1
  5  6  1  0
  5  7  1  0
  5 35  1  6
  6 36  1  0
  7 28  1  0
  7  8  1  0
  7 37  1  6
  8  9  1  0
  8 11  1  0
  8 38  1  6
  9 10  1  0
 10 39  1  0
 10 40  1  0
 10 41  1  0
 11 12  1  0
 11 42  1  1
 12 28  1  0
 12 13  1  6
 12 15  1  0
 13 14  1  0
 13 43  1  0
 13 44  1  0
 14 45  1  0
 15 16  1  0
 15 17  1  0
 15 46  1  6
 16 47  1  0
 17 18  1  0
 17 48  1  1
 18 19  1  0
 18 20  1  0
 18 49  1  1
 19 50  1  0
 19 51  1  0
 19 52  1  0
 20 23  1  0
 20 21  1  6
 20 22  1  0
 21 53  1  0
 22 23  1  0
 22 54  1  0
 22 55  1  0
 23 24  1  1
 23 25  1  0
 24 56  1  0
 25 26  1  0
 25 27  1  6
 25 28  1  0
 26 57  1  0
 26 58  1  0
 26 59  1  0
 27 60  1  0
 28 29  1  6
 29 61  1  0
M  END
>  <i_m_ct_stereo_status>  (228) 
1

>  <s_m_source_file>  (228) 
/var/tmp/pbs.5076255.sched01/tmpi2d1958y/88otlks1nw.sdf

>  <i_m_source_file_index>  (228) 
22

>  <i_lp_mmshare_version>  (228) 
48012

>  <i_f3d_flags>  (228) 
0

>  <s_epik_input>  (228) 
W09IXVtDSDJdW0NAXTEyW0NAQEhdM1tDQEhdKE9bQ0gzXSlbQ0BASF00W0NASF0oW0NAQEhdMVtPSF0pW0NAQEhdKFtDSDNdKVtDQEBdNShbT0hdKVtDQF0oW0NIMl01KShbT0hdKVtDQEBdKFtDSDNdKShbT0hdKVtDQEBdMihbT0hdKVtDQEBIXShbQ0BASF00W09IXSlbQ0BIXTNPW0NIM10=

>  <s_epik_cmdline>  (228) 
J2VwaWtfcHl0aG9uJywgJy1waHQnLCAnMi4wJywgJy1waCcsICc3LjAnLCAnLXRuJywgJzgnLCAnLW1hJywgJzIwMCcsICctaW1hZScsICc8aW5maWxlLm1hZT4nLCAnLW9tYWUnLCAnPG91dGZpbGUubWFlPic=

>  <r_lp_tautomer_probability>  (228) 
1

>  <r_epik_Ionization_Penalty>  (228) 
8.49687e-07

>  <r_epik_Ionization_Penalty_Charging>  (228) 
0

>  <r_epik_Ionization_Penalty_Neutral>  (228) 
8.49687e-07

>  <r_epik_State_Penalty>  (228) 
-0

>  <r_epik_Charging_Adjusted_Penalty>  (228) 
0

>  <i_epik_Tot_Q>  (228) 
0

>  <i_epik_Tot_abs_Q>  (228) 
0

>  <s_lp_Force_Field>  (228) 
OPLS3e

>  <r_lp_Energy>  (228) 
123.197

>  <b_lp_Chiralities_Consistent>  (228) 
1

>  <s_lp_Variant>  (228) 
67:0-1

>  <s_i_glide_gridfile>  (228) 
pfpi4k_grid

>  <i_i_glide_lignum>  (228) 
22

>  <i_i_glide_rotatable_bonds>  (228) 
10

>  <r_i_docking_score>  (228) 
-4.6729

>  <r_i_glide_ligand_efficiency>  (228) 
-0.161135

>  <r_i_glide_ligand_efficiency_sa>  (228) 
-0.495056

>  <r_i_glide_ligand_efficiency_ln>  (228) 
-1.06998

>  <r_i_glide_gscore>  (228) 
-4.6729

>  <r_i_glide_lipo>  (228) 
-0.0788796

>  <r_i_glide_hbond>  (228) 
-0.154789

>  <r_i_glide_metal>  (228) 
-0

>  <r_i_glide_rewards>  (228) 
-2.06957

>  <r_i_glide_evdw>  (228) 
-15.497

>  <r_i_glide_ecoul>  (228) 
-11.3914

>  <r_i_glide_erotb>  (228) 
0.113907

>  <r_i_glide_esite>  (228) 
0

>  <r_i_glide_emodel>  (228) 
-50.5783

>  <r_i_glide_energy>  (228) 
-26.8885

>  <r_i_glide_einternal>  (228) 
3.49247

>  <r_i_glide_intrahb_reward>  (228) 
-1.5

>  <i_i_glide_confnum>  (228) 
4

>  <i_i_glide_posenum>  (228) 
7

>  <r_i_glide_eff_state_penalty>  (228) 
0

>  <ligand_id>  (228) 
67

>  <original_smiles>  (228) 
COC1C2C(O)C3C(OC)C1C1(CO)C(O)C2C(C)C2(O)CC2(O)C(C)(O)C31O

>  <smiles>  (228) 
[H]OC([H])([H])C12C([H])(O[H])C3([H])C4([H])C([H])(O[H])C([H])(C([H])(OC([H])([H])[H])C1([H])C4([H])OC([H])([H])[H])C2(O[H])C(O[H])(C([H])([H])[H])C1(O[H])C([H])([H])C1(O[H])C3([H])C([H])([H])[H]

$$$$
67:0:1
     RDKit          3D

 61 65  0  0  1  0  0  0  0  0999 V2000
   -0.7499    4.9585    8.0378 C   0  0  0  0  0  0  0  0  0  0  0  0
    0.0849    4.0149    7.3660 O   0  0  0  0  0  0  0  0  0  0  0  0
   -0.3443    3.6647    6.0450 C   0  0  2  0  0  0  0  0  0  0  0  0
   -0.5175    2.1381    5.8840 C   0  0  1  0  0  0  0  0  0  0  0  0
   -0.9872    1.9063    4.4036 C   0  0  1  0  0  0  0  0  0  0  0  0
   -2.3532    2.2565    4.3409 O   0  0  0  0  0  0  0  0  0  0  0  0
   -0.1774    2.6728    3.3091 C   0  0  1  0  0  0  0  0  0  0  0  0
   -0.1424    4.1928    3.6362 C   0  0  1  0  0  0  0  0  0  0  0  0
   -1.3878    4.8940    3.7370 O   0  0  0  0  0  0  0  0  0  0  0  0
   -2.1935    4.8690    2.5648 C   0  0  0  0  0  0  0  0  0  0  0  0
    0.6529    4.1492    4.9423 C   0  0  2  0  0  0  0  0  0  0  0  0
    1.8375    3.1191    4.6254 C   0  0  1  0  0  0  0  0  0  0  0  0
    3.1705    3.8851    4.2745 C   0  0  0  0  0  0  0  0  0  0  0  0
    3.6254    4.8207    5.2361 O   0  0  0  0  0  0  0  0  0  0  0  0
    2.0560    2.2623    5.9295 C   0  0  1  0  0  0  0  0  0  0  0  0
    2.4721    3.0291    7.0433 O   0  0  0  0  0  0  0  0  0  0  0  0
    0.8021    1.4619    6.3943 C   0  0  2  0  0  0  0  0  0  0  0  0
    0.9779   -0.0938    6.3980 C   0  0  1  0  0  0  0  0  0  0  0  0
    0.0490   -0.8335    7.3644 C   0  0  0  0  0  0  0  0  0  0  0  0
    0.9698   -0.7018    5.0082 C   0  0  2  0  0  0  0  0  0  0  0  0
   -0.2495   -1.2355    4.5694 O   0  0  0  0  0  0  0  0  0  0  0  0
    1.8727   -1.6775    4.2669 C   0  0  0  0  0  0  0  0  0  0  0  0
    2.0109   -0.1908    4.0635 C   0  0  2  0  0  0  0  0  0  0  0  0
    3.3434   -0.1124    4.4798 O   0  0  0  0  0  0  0  0  0  0  0  0
    1.7022    0.7537    2.9016 C   0  0  1  0  0  0  0  0  0  0  0  0
    2.8242    0.5629    1.8446 C   0  0  0  0  0  0  0  0  0  0  0  0
    0.5848    0.1987    2.2398 O   0  0  0  0  0  0  0  0  0  0  0  0
    1.3300    2.2822    3.3152 C   0  0  1  0  0  0  0  0  0  0  0  0
    1.8131    2.9425    2.1472 O   0  0  0  0  0  0  0  0  0  0  0  0
   -0.3721    5.1481    9.0477 H   0  0  0  0  0  0  0  0  0  0  0  0
   -1.7759    4.5866    8.1431 H   0  0  0  0  0  0  0  0  0  0  0  0
   -0.7775    5.9141    7.5024 H   0  0  0  0  0  0  0  0  0  0  0  0
   -1.3212    4.1224    5.8914 H   0  0  0  0  0  0  0  0  0  0  0  0
   -1.3226    1.8058    6.5440 H   0  0  0  0  0  0  0  0  0  0  0  0
   -1.0245    0.8667    4.1488 H   0  0  0  0  0  0  0  0  0  0  0  0
   -2.7163    1.9081    3.5355 H   0  0  0  0  0  0  0  0  0  0  0  0
   -0.6167    2.5068    2.3256 H   0  0  0  0  0  0  0  0  0  0  0  0
    0.4336    4.7600    2.9055 H   0  0  0  0  0  0  0  0  0  0  0  0
   -3.1362    5.3731    2.7471 H   0  0  0  0  0  0  0  0  0  0  0  0
   -2.4576    3.8576    2.2628 H   0  0  0  0  0  0  0  0  0  0  0  0
   -1.7165    5.3881    1.7368 H   0  0  0  0  0  0  0  0  0  0  0  0
    1.0153    5.1451    5.2041 H   0  0  0  0  0  0  0  0  0  0  0  0
    3.9728    3.1665    4.0944 H   0  0  0  0  0  0  0  0  0  0  0  0
    3.0885    4.4892    3.3705 H   0  0  0  0  0  0  0  0  0  0  0  0
    2.9598    5.4878    5.3397 H   0  0  0  0  0  0  0  0  0  0  0  0
    2.9321    1.6412    5.8646 H   0  0  0  0  0  0  0  0  0  0  0  0
    1.7429    3.5946    7.2988 H   0  0  0  0  0  0  0  0  0  0  0  0
    0.7466    1.6211    7.4714 H   0  0  0  0  0  0  0  0  0  0  0  0
    1.9776   -0.2824    6.7696 H   0  0  0  0  0  0  0  0  0  0  0  0
   -0.9821   -0.6570    7.0887 H   0  0  0  0  0  0  0  0  0  0  0  0
    0.2091   -0.4822    8.3838 H   0  0  0  0  0  0  0  0  0  0  0  0
    0.2372   -1.9059    7.3504 H   0  0  0  0  0  0  0  0  0  0  0  0
   -0.2416   -1.1729    3.6129 H   0  0  0  0  0  0  0  0  0  0  0  0
    2.5708   -2.2274    4.9041 H   0  0  0  0  0  0  0  0  0  0  0  0
    1.5272   -2.2351    3.3904 H   0  0  0  0  0  0  0  0  0  0  0  0
    3.5518    0.7761    4.7159 H   0  0  0  0  0  0  0  0  0  0  0  0
    3.7571    1.0368    2.1335 H   0  0  0  0  0  0  0  0  0  0  0  0
    2.5292    0.9495    0.8791 H   0  0  0  0  0  0  0  0  0  0  0  0
    3.0389   -0.4907    1.6904 H   0  0  0  0  0  0  0  0  0  0  0  0
    0.5697    0.5328    1.3498 H   0  0  0  0  0  0  0  0  0  0  0  0
    1.1369    3.4615    1.7066 H   0  0  0  0  0  0  0  0  0  0  0  0
  1  2  1  0
  1 30  1  0
  1 31  1  0
  1 32  1  0
  2  3  1  0
  3 11  1  0
  3  4  1  0
  3 33  1  6
  4 17  1  0
  4  5  1  0
  4 34  1  1
  5  6  1  0
  5  7  1  0
  5 35  1  6
  6 36  1  0
  7 28  1  0
  7  8  1  0
  7 37  1  6
  8  9  1  0
  8 11  1  0
  8 38  1  6
  9 10  1  0
 10 39  1  0
 10 40  1  0
 10 41  1  0
 11 12  1  0
 11 42  1  1
 12 28  1  0
 12 13  1  6
 12 15  1  0
 13 14  1  0
 13 43  1  0
 13 44  1  0
 14 45  1  0
 15 16  1  0
 15 17  1  0
 15 46  1  6
 16 47  1  0
 17 18  1  0
 17 48  1  1
 18 19  1  0
 18 20  1  0
 18 49  1  1
 19 50  1  0
 19 51  1  0
 19 52  1  0
 20 23  1  0
 20 21  1  6
 20 22  1  0
 21 53  1  0
 22 23  1  0
 22 54  1  0
 22 55  1  0
 23 24  1  1
 23 25  1  0
 24 56  1  0
 25 26  1  0
 25 27  1  6
 25 28  1  0
 26 57  1  0
 26 58  1  0
 26 59  1  0
 27 60  1  0
 28 29  1  6
 29 61  1  0
M  END
>  <i_m_ct_stereo_status>  (229) 
1

>  <s_m_source_file>  (229) 
/var/tmp/pbs.5076255.sched01/tmpi2d1958y/88otlks1nw.sdf

>  <i_m_source_file_index>  (229) 
22

>  <i_lp_mmshare_version>  (229) 
48012

>  <i_f3d_flags>  (229) 
0

>  <s_epik_input>  (229) 
W09IXVtDSDJdW0NAXTEyW0NAQEhdM1tDQEhdKE9bQ0gzXSlbQ0BASF00W0NASF0oW0NAQEhdMVtPSF0pW0NAQEhdKFtDSDNdKVtDQEBdNShbT0hdKVtDQF0oW0NIMl01KShbT0hdKVtDQEBdKFtDSDNdKShbT0hdKVtDQEBdMihbT0hdKVtDQEBIXShbQ0BASF00W09IXSlbQ0BIXTNPW0NIM10=

>  <s_epik_cmdline>  (229) 
J2VwaWtfcHl0aG9uJywgJy1waHQnLCAnMi4wJywgJy1waCcsICc3LjAnLCAnLXRuJywgJzgnLCAnLW1hJywgJzIwMCcsICctaW1hZScsICc8aW5maWxlLm1hZT4nLCAnLW9tYWUnLCAnPG91dGZpbGUubWFlPic=

>  <r_lp_tautomer_probability>  (229) 
1

>  <r_epik_Ionization_Penalty>  (229) 
8.49687e-07

>  <r_epik_Ionization_Penalty_Charging>  (229) 
0

>  <r_epik_Ionization_Penalty_Neutral>  (229) 
8.49687e-07

>  <r_epik_State_Penalty>  (229) 
-0

>  <r_epik_Charging_Adjusted_Penalty>  (229) 
0

>  <i_epik_Tot_Q>  (229) 
0

>  <i_epik_Tot_abs_Q>  (229) 
0

>  <s_lp_Force_Field>  (229) 
OPLS3e

>  <r_lp_Energy>  (229) 
123.197

>  <b_lp_Chiralities_Consistent>  (229) 
1

>  <s_lp_Variant>  (229) 
67:0-1

>  <s_i_glide_gridfile>  (229) 
pfpi4k_grid

>  <i_i_glide_lignum>  (229) 
22

>  <i_i_glide_rotatable_bonds>  (229) 
10

>  <r_i_docking_score>  (229) 
-4.11427

>  <r_i_glide_ligand_efficiency>  (229) 
-0.141871

>  <r_i_glide_ligand_efficiency_sa>  (229) 
-0.435874

>  <r_i_glide_ligand_efficiency_ln>  (229) 
-0.942063

>  <r_i_glide_gscore>  (229) 
-4.11427

>  <r_i_glide_lipo>  (229) 
-0.0619085

>  <r_i_glide_hbond>  (229) 
-0.156552

>  <r_i_glide_metal>  (229) 
-0

>  <r_i_glide_rewards>  (229) 
-1.56957

>  <r_i_glide_evdw>  (229) 
-15.7439

>  <r_i_glide_ecoul>  (229) 
-11.0197

>  <r_i_glide_erotb>  (229) 
0.113907

>  <r_i_glide_esite>  (229) 
0

>  <r_i_glide_emodel>  (229) 
-42.8096

>  <r_i_glide_energy>  (229) 
-26.7635

>  <r_i_glide_einternal>  (229) 
5.75551

>  <r_i_glide_intrahb_reward>  (229) 
-1

>  <i_i_glide_confnum>  (229) 
4

>  <i_i_glide_posenum>  (229) 
34

>  <r_i_glide_eff_state_penalty>  (229) 
0

>  <ligand_id>  (229) 
67

>  <original_smiles>  (229) 
COC1C2C(O)C3C(OC)C1C1(CO)C(O)C2C(C)C2(O)CC2(O)C(C)(O)C31O

>  <smiles>  (229) 
[H]OC([H])([H])C12C([H])(O[H])C3([H])C4([H])C([H])(O[H])C([H])(C([H])(OC([H])([H])[H])C1([H])C4([H])OC([H])([H])[H])C2(O[H])C(O[H])(C([H])([H])[H])C1(O[H])C([H])([H])C1(O[H])C3([H])C([H])([H])[H]

$$$$
67:0:2
     RDKit          3D

 61 65  0  0  1  0  0  0  0  0999 V2000
   -0.9927    3.8174    8.3253 C   0  0  0  0  0  0  0  0  0  0  0  0
    0.0289    3.9645    7.3327 O   0  0  0  0  0  0  0  0  0  0  0  0
   -0.3824    3.6170    6.0067 C   0  0  2  0  0  0  0  0  0  0  0  0
   -0.6015    2.0992    5.7842 C   0  0  1  0  0  0  0  0  0  0  0  0
   -1.0464    1.9382    4.2843 C   0  0  1  0  0  0  0  0  0  0  0  0
   -2.4014    2.3395    4.1897 O   0  0  0  0  0  0  0  0  0  0  0  0
   -0.1815    2.6994    3.2392 C   0  0  1  0  0  0  0  0  0  0  0  0
   -0.1155    4.2052    3.6153 C   0  0  1  0  0  0  0  0  0  0  0  0
   -1.3590    4.8991    3.7151 O   0  0  0  0  0  0  0  0  0  0  0  0
   -2.0519    5.0426    2.4741 C   0  0  0  0  0  0  0  0  0  0  0  0
    0.6521    4.0981    4.9375 C   0  0  2  0  0  0  0  0  0  0  0  0
    1.8131    3.0478    4.6069 C   0  0  1  0  0  0  0  0  0  0  0  0
    3.1742    3.7788    4.3037 C   0  0  0  0  0  0  0  0  0  0  0  0
    3.6567    4.6253    5.3338 O   0  0  0  0  0  0  0  0  0  0  0  0
    1.9850    2.1611    5.8904 C   0  0  1  0  0  0  0  0  0  0  0  0
    2.4046    2.9228    7.0088 O   0  0  0  0  0  0  0  0  0  0  0  0
    0.6949    1.3858    6.3143 C   0  0  2  0  0  0  0  0  0  0  0  0
    0.8380   -0.1720    6.2952 C   0  0  1  0  0  0  0  0  0  0  0  0
   -0.1605   -0.8972    7.1931 C   0  0  0  0  0  0  0  0  0  0  0  0
    0.8338   -0.7556    4.9030 C   0  0  2  0  0  0  0  0  0  0  0  0
   -0.4180   -1.2187    4.4644 O   0  0  0  0  0  0  0  0  0  0  0  0
    1.7136   -1.7364    4.1375 C   0  0  0  0  0  0  0  0  0  0  0  0
    1.9041   -0.2486    3.9826 C   0  0  2  0  0  0  0  0  0  0  0  0
    3.2398   -0.2168    4.4386 O   0  0  0  0  0  0  0  0  0  0  0  0
    1.6515    0.7357    2.8325 C   0  0  1  0  0  0  0  0  0  0  0  0
    2.7982    0.5373    1.8176 C   0  0  0  0  0  0  0  0  0  0  0  0
    0.5320    0.2557    2.1189 O   0  0  0  0  0  0  0  0  0  0  0  0
    1.3139    2.2587    3.2721 C   0  0  1  0  0  0  0  0  0  0  0  0
    1.8080    2.9443    2.1299 O   0  0  0  0  0  0  0  0  0  0  0  0
   -0.5901    4.0771    9.3064 H   0  0  0  0  0  0  0  0  0  0  0  0
   -1.3617    2.7915    8.3969 H   0  0  0  0  0  0  0  0  0  0  0  0
   -1.8404    4.4777    8.1227 H   0  0  0  0  0  0  0  0  0  0  0  0
   -1.3214    4.1556    5.8702 H   0  0  0  0  0  0  0  0  0  0  0  0
   -1.4398    1.7519    6.3882 H   0  0  0  0  0  0  0  0  0  0  0  0
   -1.1146    0.9144    3.9921 H   0  0  0  0  0  0  0  0  0  0  0  0
   -2.7651    1.9935    3.3836 H   0  0  0  0  0  0  0  0  0  0  0  0
   -0.6035    2.5600    2.2458 H   0  0  0  0  0  0  0  0  0  0  0  0
    0.4950    4.7831    2.9177 H   0  0  0  0  0  0  0  0  0  0  0  0
   -2.9825    5.5855    2.6002 H   0  0  0  0  0  0  0  0  0  0  0  0
   -2.3146    4.0732    2.0773 H   0  0  0  0  0  0  0  0  0  0  0  0
   -1.4581    5.6153    1.7654 H   0  0  0  0  0  0  0  0  0  0  0  0
    1.0459    5.0738    5.2301 H   0  0  0  0  0  0  0  0  0  0  0  0
    3.9451    3.0391    4.0839 H   0  0  0  0  0  0  0  0  0  0  0  0
    3.1051    4.4390    3.4405 H   0  0  0  0  0  0  0  0  0  0  0  0
    3.6687    4.1019    6.1308 H   0  0  0  0  0  0  0  0  0  0  0  0
    2.8350    1.5063    5.8173 H   0  0  0  0  0  0  0  0  0  0  0  0
    1.6820    3.5082    7.2367 H   0  0  0  0  0  0  0  0  0  0  0  0
    0.6305    1.5357    7.3931 H   0  0  0  0  0  0  0  0  0  0  0  0
    1.8192   -0.3929    6.6988 H   0  0  0  0  0  0  0  0  0  0  0  0
   -1.1713   -0.6893    6.8645 H   0  0  0  0  0  0  0  0  0  0  0  0
   -0.0446   -0.5766    8.2329 H   0  0  0  0  0  0  0  0  0  0  0  0
   -0.0040   -1.9717    7.1652 H   0  0  0  0  0  0  0  0  0  0  0  0
   -0.8033   -0.5093    3.9646 H   0  0  0  0  0  0  0  0  0  0  0  0
    2.3799   -2.3300    4.7676 H   0  0  0  0  0  0  0  0  0  0  0  0
    1.3357   -2.2568    3.2495 H   0  0  0  0  0  0  0  0  0  0  0  0
    3.8161   -0.3441    3.6972 H   0  0  0  0  0  0  0  0  0  0  0  0
    3.7395    0.9843    2.1217 H   0  0  0  0  0  0  0  0  0  0  0  0
    2.5292    0.9659    0.8627 H   0  0  0  0  0  0  0  0  0  0  0  0
    2.9790   -0.5180    1.6206 H   0  0  0  0  0  0  0  0  0  0  0  0
    0.5729    0.5613    1.2180 H   0  0  0  0  0  0  0  0  0  0  0  0
    1.1519    3.4641    1.6791 H   0  0  0  0  0  0  0  0  0  0  0  0
  1  2  1  0
  1 30  1  0
  1 31  1  0
  1 32  1  0
  2  3  1  0
  3 11  1  0
  3  4  1  0
  3 33  1  6
  4 17  1  0
  4  5  1  0
  4 34  1  1
  5  6  1  0
  5  7  1  0
  5 35  1  6
  6 36  1  0
  7 28  1  0
  7  8  1  0
  7 37  1  6
  8  9  1  0
  8 11  1  0
  8 38  1  6
  9 10  1  0
 10 39  1  0
 10 40  1  0
 10 41  1  0
 11 12  1  0
 11 42  1  1
 12 28  1  0
 12 13  1  6
 12 15  1  0
 13 14  1  0
 13 43  1  0
 13 44  1  0
 14 45  1  0
 15 16  1  0
 15 17  1  0
 15 46  1  6
 16 47  1  0
 17 18  1  0
 17 48  1  1
 18 19  1  0
 18 20  1  0
 18 49  1  1
 19 50  1  0
 19 51  1  0
 19 52  1  0
 20 23  1  0
 20 21  1  6
 20 22  1  0
 21 53  1  0
 22 23  1  0
 22 54  1  0
 22 55  1  0
 23 24  1  1
 23 25  1  0
 24 56  1  0
 25 26  1  0
 25 27  1  6
 25 28  1  0
 26 57  1  0
 26 58  1  0
 26 59  1  0
 27 60  1  0
 28 29  1  6
 29 61  1  0
M  END
>  <i_m_ct_stereo_status>  (230) 
1

>  <s_m_source_file>  (230) 
/var/tmp/pbs.5076255.sched01/tmpi2d1958y/88otlks1nw.sdf

>  <i_m_source_file_index>  (230) 
22

>  <i_lp_mmshare_version>  (230) 
48012

>  <i_f3d_flags>  (230) 
0

>  <s_epik_input>  (230) 
W09IXVtDSDJdW0NAXTEyW0NAQEhdM1tDQEhdKE9bQ0gzXSlbQ0BASF00W0NASF0oW0NAQEhdMVtPSF0pW0NAQEhdKFtDSDNdKVtDQEBdNShbT0hdKVtDQF0oW0NIMl01KShbT0hdKVtDQEBdKFtDSDNdKShbT0hdKVtDQEBdMihbT0hdKVtDQEBIXShbQ0BASF00W09IXSlbQ0BIXTNPW0NIM10=

>  <s_epik_cmdline>  (230) 
J2VwaWtfcHl0aG9uJywgJy1waHQnLCAnMi4wJywgJy1waCcsICc3LjAnLCAnLXRuJywgJzgnLCAnLW1hJywgJzIwMCcsICctaW1hZScsICc8aW5maWxlLm1hZT4nLCAnLW9tYWUnLCAnPG91dGZpbGUubWFlPic=

>  <r_lp_tautomer_probability>  (230) 
1

>  <r_epik_Ionization_Penalty>  (230) 
8.49687e-07

>  <r_epik_Ionization_Penalty_Charging>  (230) 
0

>  <r_epik_Ionization_Penalty_Neutral>  (230) 
8.49687e-07

>  <r_epik_State_Penalty>  (230) 
-0

>  <r_epik_Charging_Adjusted_Penalty>  (230) 
0

>  <i_epik_Tot_Q>  (230) 
0

>  <i_epik_Tot_abs_Q>  (230) 
0

>  <s_lp_Force_Field>  (230) 
OPLS3e

>  <r_lp_Energy>  (230) 
123.197

>  <b_lp_Chiralities_Consistent>  (230) 
1

>  <s_lp_Variant>  (230) 
67:0-1

>  <s_i_glide_gridfile>  (230) 
pfpi4k_grid

>  <i_i_glide_lignum>  (230) 
22

>  <i_i_glide_rotatable_bonds>  (230) 
10

>  <r_i_docking_score>  (230) 
-3.87818

>  <r_i_glide_ligand_efficiency>  (230) 
-0.13373

>  <r_i_glide_ligand_efficiency_sa>  (230) 
-0.410862

>  <r_i_glide_ligand_efficiency_ln>  (230) 
-0.888004

>  <r_i_glide_gscore>  (230) 
-3.87818

>  <r_i_glide_lipo>  (230) 
-0.0513637

>  <r_i_glide_hbond>  (230) 
-0.157269

>  <r_i_glide_metal>  (230) 
-0

>  <r_i_glide_rewards>  (230) 
-1.56957

>  <r_i_glide_evdw>  (230) 
-15.7115

>  <r_i_glide_ecoul>  (230) 
-9.52204

>  <r_i_glide_erotb>  (230) 
0.113907

>  <r_i_glide_esite>  (230) 
0

>  <r_i_glide_emodel>  (230) 
-42.0268

>  <r_i_glide_energy>  (230) 
-25.2335

>  <r_i_glide_einternal>  (230) 
3.46258

>  <r_i_glide_intrahb_reward>  (230) 
-1

>  <i_i_glide_confnum>  (230) 
4

>  <i_i_glide_posenum>  (230) 
1

>  <r_i_glide_eff_state_penalty>  (230) 
0

>  <ligand_id>  (230) 
67

>  <original_smiles>  (230) 
COC1C2C(O)C3C(OC)C1C1(CO)C(O)C2C(C)C2(O)CC2(O)C(C)(O)C31O

>  <smiles>  (230) 
[H]OC([H])([H])C12C([H])(O[H])C3([H])C4([H])C([H])(O[H])C([H])(C([H])(OC([H])([H])[H])C1([H])C4([H])OC([H])([H])[H])C2(O[H])C(O[H])(C([H])([H])[H])C1(O[H])C([H])([H])C1(O[H])C3([H])C([H])([H])[H]

$$$$
68:0:0
     RDKit          3D

 43 49  0  0  1  0  0  0  0  0999 V2000
    2.1474   -2.1541   -3.9667 C   0  0  0  0  0  0  0  0  0  0  0  0
    2.8941   -0.9580   -3.5275 N   0  0  0  0  0  0  0  0  0  0  0  0
    2.9409    0.0301   -4.6320 C   0  0  0  0  0  0  0  0  0  0  0  0
    4.2372   -1.1621   -2.9042 C   0  0  0  0  0  0  0  0  0  0  0  0
    4.4495   -2.4385   -2.0353 C   0  0  1  0  0  0  0  0  0  0  0  0
    3.9940   -3.8035   -2.5519 C   0  0  0  0  0  0  0  0  0  0  0  0
    4.8372   -4.2283   -1.4172 C   0  0  1  0  0  0  0  0  0  0  0  0
    5.8885   -3.1149   -2.0552 C   0  0  2  0  0  0  0  0  0  0  0  0
    6.9769   -2.4024   -0.8562 C   0  0  2  0  0  0  0  0  0  0  0  0
    6.7290   -3.3839   -0.0482 C   0  0  1  0  0  0  0  0  0  0  0  0
    7.3384   -4.0325    1.2400 C   0  0  0  0  0  0  0  0  0  0  0  0
    6.1040   -3.9522    2.0735 C   0  0  1  0  0  0  0  0  0  0  0  0
    5.5951   -2.5756    1.9244 C   0  0  1  0  0  0  0  0  0  0  0  0
    6.4509   -1.8035    0.7797 C   0  0  1  0  0  0  0  0  0  0  0  0
    5.5848   -1.8983   -0.1559 C   0  0  2  0  0  0  0  0  0  0  0  0
    4.1894   -2.3127   -0.5019 C   0  0  2  0  0  0  0  0  0  0  0  0
    4.1223   -3.7524   -0.0603 C   0  0  2  0  0  0  0  0  0  0  0  0
    4.6851   -3.7984    1.4538 C   0  0  1  0  0  0  0  0  0  0  0  0
    3.6998   -4.1130    2.4119 O   0  0  0  0  0  0  0  0  0  0  0  0
    2.7758   -2.7831   -4.6150 H   0  0  0  0  0  0  0  0  0  0  0  0
    1.2773   -1.9238   -4.5884 H   0  0  0  0  0  0  0  0  0  0  0  0
    1.7687   -2.6715   -3.0959 H   0  0  0  0  0  0  0  0  0  0  0  0
    3.5434   -0.3455   -5.4847 H   0  0  0  0  0  0  0  0  0  0  0  0
    3.3304    1.0150   -4.3256 H   0  0  0  0  0  0  0  0  0  0  0  0
    1.9216    0.1857   -5.0285 H   0  0  0  0  0  0  0  0  0  0  0  0
    5.0028   -1.1593   -3.6835 H   0  0  0  0  0  0  0  0  0  0  0  0
    4.4516   -0.2716   -2.3167 H   0  0  0  0  0  0  0  0  0  0  0  0
    2.9619   -4.0762   -2.2944 H   0  0  0  0  0  0  0  0  0  0  0  0
    4.3291   -4.1496   -3.5542 H   0  0  0  0  0  0  0  0  0  0  0  0
    5.0943   -5.2808   -1.4981 H   0  0  0  0  0  0  0  0  0  0  0  0
    6.3034   -3.3206   -3.0488 H   0  0  0  0  0  0  0  0  0  0  0  0
    8.0500   -2.3788   -1.0876 H   0  0  0  0  0  0  0  0  0  0  0  0
    7.0042   -4.2277   -0.7010 H   0  0  0  0  0  0  0  0  0  0  0  0
    7.6288   -5.0730    1.0951 H   0  0  0  0  0  0  0  0  0  0  0  0
    8.1708   -3.4722    1.6811 H   0  0  0  0  0  0  0  0  0  0  0  0
    6.1607   -4.3572    3.0828 H   0  0  0  0  0  0  0  0  0  0  0  0
    5.3226   -2.0203    2.8236 H   0  0  0  0  0  0  0  0  0  0  0  0
    6.7487   -0.7793    1.0189 H   0  0  0  0  0  0  0  0  0  0  0  0
    5.6610   -0.8319   -0.5524 H   0  0  0  0  0  0  0  0  0  0  0  0
    3.3802   -1.6369   -0.2002 H   0  0  0  0  0  0  0  0  0  0  0  0
    3.0901   -4.0865   -0.0358 H   0  0  0  0  0  0  0  0  0  0  0  0
    3.5074   -5.0270    2.2806 H   0  0  0  0  0  0  0  0  0  0  0  0
    2.3277   -0.5465   -2.8058 H   0  0  0  0  0  0  0  0  0  0  0  0
  1  2  1  0
  1 20  1  0
  1 21  1  0
  1 22  1  0
  2  3  1  0
  2  4  1  0
  2 43  1  0
  3 23  1  0
  3 24  1  0
  3 25  1  0
  5  4  1  6
  4 26  1  0
  4 27  1  0
  5  8  1  0
  5 16  1  0
  5  6  1  0
  6  7  1  0
  6 28  1  0
  6 29  1  0
  7 17  1  0
  7  8  1  0
  7 30  1  1
  8  9  1  0
  8 31  1  6
  9 14  1  0
  9 10  1  0
  9 32  1  6
 10 15  1  0
 10 11  1  0
 10 33  1  6
 11 12  1  0
 11 34  1  0
 11 35  1  0
 12 18  1  0
 12 13  1  0
 12 36  1  1
 13 18  1  0
 13 14  1  0
 13 37  1  1
 14 15  1  0
 14 38  1  1
 15 16  1  0
 15 39  1  6
 16 17  1  0
 16 40  1  6
 17 18  1  0
 17 41  1  1
 18 19  1  1
 19 42  1  0
M  CHG  1   2   1
M  END
>  <i_m_ct_stereo_status>  (231) 
1

>  <s_m_source_file>  (231) 
/var/tmp/pbs.5076255.sched01/tmpi2d1958y/88otlks1nw.sdf

>  <i_m_source_file_index>  (231) 
23

>  <i_lp_mmshare_version>  (231) 
48012

>  <i_f3d_flags>  (231) 
0

>  <s_epik_input>  (231) 
W0NIM11OKFtDSDNdKVtDSDJdW0NAXTEyW0NAQEhdM1tDQEhdKFtDSDJdMSlbQ0BASF00W0NASF0yW0NAQEhdNVtDSF02W0NAQEhdM1tDQEBIXTVbQ0BASF03W0NASF0oW0NIMl02KVtDQF00N1tPSF0=

>  <s_epik_cmdline>  (231) 
J2VwaWtfcHl0aG9uJywgJy1waHQnLCAnMi4wJywgJy1waCcsICc3LjAnLCAnLXRuJywgJzgnLCAnLW1hJywgJzIwMCcsICctaW1hZScsICc8aW5maWxlLm1hZT4nLCAnLW9tYWUnLCAnPG91dGZpbGUubWFlPic=

>  <r_epik_Ionization_Penalty>  (231) 
0.000719678

>  <r_epik_Ionization_Penalty_Charging>  (231) 
0.00071666

>  <r_epik_Ionization_Penalty_Neutral>  (231) 
3.01773e-06

>  <r_epik_State_Penalty>  (231) 
0.000456802

>  <r_epik_Charging_Adjusted_Penalty>  (231) 
0.00117346

>  <i_epik_Tot_Q>  (231) 
1

>  <i_epik_Tot_abs_Q>  (231) 
1

>  <s_lp_Force_Field>  (231) 
OPLS3e

>  <r_lp_Energy>  (231) 
481.957

>  <b_lp_Chiralities_Consistent>  (231) 
1

>  <s_lp_Variant>  (231) 
68:0-1

>  <s_i_glide_gridfile>  (231) 
pfpi4k_grid

>  <i_i_glide_lignum>  (231) 
23

>  <i_i_glide_rotatable_bonds>  (231) 
3

>  <r_i_docking_score>  (231) 
-3.38112

>  <r_i_glide_ligand_efficiency>  (231) 
-0.177954

>  <r_i_glide_ligand_efficiency_sa>  (231) 
-0.474851

>  <r_i_glide_ligand_efficiency_ln>  (231) 
-0.857186

>  <r_i_glide_gscore>  (231) 
-3.38112

>  <r_i_glide_lipo>  (231) 
-0.847895

>  <r_i_glide_hbond>  (231) 
0

>  <r_i_glide_metal>  (231) 
-0

>  <r_i_glide_rewards>  (231) 
-1.64742

>  <r_i_glide_evdw>  (231) 
-13.8362

>  <r_i_glide_ecoul>  (231) 
-3.05718

>  <r_i_glide_erotb>  (231) 
0.264586

>  <r_i_glide_esite>  (231) 
0

>  <r_i_glide_emodel>  (231) 
-18.292

>  <r_i_glide_energy>  (231) 
-16.8934

>  <r_i_glide_einternal>  (231) 
4.0966

>  <r_i_glide_intrahb_reward>  (231) 
-0

>  <i_i_glide_confnum>  (231) 
2

>  <i_i_glide_posenum>  (231) 
20

>  <r_i_glide_eff_state_penalty>  (231) 
0

>  <ligand_id>  (231) 
68

>  <original_smiles>  (231) 
CN(C)CC12CC3C1C1C4CC5C6C1C4C2C3C56O

>  <smiles>  (231) 
[H]OC12C3([H])C([H])([H])C4([H])C5([H])C([H])(C4([H])C4([H])C1([H])C1([H])C([H])([H])C4(C([H])([H])[N+]([H])(C([H])([H])[H])C([H])([H])[H])C15[H])C32[H]

$$$$
68:0:1
     RDKit          3D

 43 49  0  0  1  0  0  0  0  0999 V2000
    3.5536   -0.0565   -5.7012 C   0  0  0  0  0  0  0  0  0  0  0  0
    2.4493   -0.0311   -4.7143 N   0  0  0  0  0  0  0  0  0  0  0  0
    1.7014    1.2397   -4.8884 C   0  0  0  0  0  0  0  0  0  0  0  0
    2.8819   -0.2792   -3.2889 C   0  0  0  0  0  0  0  0  0  0  0  0
    3.3178   -1.7381   -2.9579 C   0  0  1  0  0  0  0  0  0  0  0  0
    3.0745   -2.8745   -3.9501 C   0  0  0  0  0  0  0  0  0  0  0  0
    4.1011   -3.4846   -3.0205 C   0  0  1  0  0  0  0  0  0  0  0  0
    4.8372   -2.0307   -3.1142 C   0  0  2  0  0  0  0  0  0  0  0  0
    5.7619   -1.6060   -1.6636 C   0  0  2  0  0  0  0  0  0  0  0  0
    5.8436   -2.8140   -1.2867 C   0  0  1  0  0  0  0  0  0  0  0  0
    6.6792   -3.6594   -0.2687 C   0  0  0  0  0  0  0  0  0  0  0  0
    5.4853   -4.2381    0.4330 C   0  0  1  0  0  0  0  0  0  0  0  0
    4.6022   -3.0897    0.7656 C   0  0  1  0  0  0  0  0  0  0  0  0
    5.1855   -1.7785    0.0487 C   0  0  2  0  0  0  0  0  0  0  0  0
    4.3620   -1.6940   -0.8995 C   0  0  2  0  0  0  0  0  0  0  0  0
    3.1201   -2.2761   -1.4913 C   0  0  2  0  0  0  0  0  0  0  0  0
    3.4148   -3.7355   -1.6003 C   0  0  2  0  0  0  0  0  0  0  0  0
    4.0544   -4.2236   -0.1888 C   0  0  1  0  0  0  0  0  0  0  0  0
    3.2076   -5.1032    0.4910 O   0  0  0  0  0  0  0  0  0  0  0  0
    4.3012    0.7041   -5.4460 H   0  0  0  0  0  0  0  0  0  0  0  0
    3.1565    0.1242   -6.7046 H   0  0  0  0  0  0  0  0  0  0  0  0
    4.0525   -1.0248   -5.7396 H   0  0  0  0  0  0  0  0  0  0  0  0
    2.3923    2.0690   -4.7293 H   0  0  0  0  0  0  0  0  0  0  0  0
    0.8429    1.3467   -4.2350 H   0  0  0  0  0  0  0  0  0  0  0  0
    1.3258    1.3421   -5.8923 H   0  0  0  0  0  0  0  0  0  0  0  0
    3.6698    0.4441   -3.0433 H   0  0  0  0  0  0  0  0  0  0  0  0
    2.0884    0.0063   -2.6074 H   0  0  0  0  0  0  0  0  0  0  0  0
    2.0759   -3.2870   -3.8146 H   0  0  0  0  0  0  0  0  0  0  0  0
    3.4332   -2.8470   -4.9817 H   0  0  0  0  0  0  0  0  0  0  0  0
    4.6572   -4.2994   -3.4711 H   0  0  0  0  0  0  0  0  0  0  0  0
    5.2308   -1.7320   -4.0670 H   0  0  0  0  0  0  0  0  0  0  0  0
    6.7869   -1.3498   -1.7993 H   0  0  0  0  0  0  0  0  0  0  0  0
    6.2793   -3.2476   -2.2014 H   0  0  0  0  0  0  0  0  0  0  0  0
    7.2489   -4.4521   -0.7132 H   0  0  0  0  0  0  0  0  0  0  0  0
    7.3118   -3.0908    0.4325 H   0  0  0  0  0  0  0  0  0  0  0  0
    5.6649   -4.9720    1.2148 H   0  0  0  0  0  0  0  0  0  0  0  0
    4.2607   -3.0118    1.7980 H   0  0  0  0  0  0  0  0  0  0  0  0
    5.2690   -0.8755    0.6586 H   0  0  0  0  0  0  0  0  0  0  0  0
    4.1766   -0.5685   -0.8474 H   0  0  0  0  0  0  0  0  0  0  0  0
    2.2086   -2.1510   -0.9411 H   0  0  0  0  0  0  0  0  0  0  0  0
    2.4702   -4.2568   -1.7411 H   0  0  0  0  0  0  0  0  0  0  0  0
    3.0788   -5.8175   -0.1087 H   0  0  0  0  0  0  0  0  0  0  0  0
    1.8072   -0.7928   -4.9303 H   0  0  0  0  0  0  0  0  0  0  0  0
  1  2  1  0
  1 20  1  0
  1 21  1  0
  1 22  1  0
  2  3  1  0
  2  4  1  0
  2 43  1  0
  3 23  1  0
  3 24  1  0
  3 25  1  0
  5  4  1  6
  4 26  1  0
  4 27  1  0
  5  8  1  0
  5 16  1  0
  5  6  1  0
  6  7  1  0
  6 28  1  0
  6 29  1  0
  7 17  1  0
  7  8  1  0
  7 30  1  6
  8  9  1  0
  8 31  1  6
  9 14  1  0
  9 10  1  0
  9 32  1  6
 10 15  1  0
 10 11  1  0
 10 33  1  6
 11 12  1  0
 11 34  1  0
 11 35  1  0
 12 18  1  0
 12 13  1  0
 12 36  1  1
 13 18  1  0
 13 14  1  0
 13 37  1  1
 14 15  1  0
 14 38  1  1
 15 16  1  0
 15 39  1  6
 16 17  1  0
 16 40  1  1
 17 18  1  0
 17 41  1  6
 18 19  1  1
 19 42  1  0
M  CHG  1   2   1
M  END
>  <i_m_ct_stereo_status>  (232) 
1

>  <s_m_source_file>  (232) 
/var/tmp/pbs.5076255.sched01/tmpi2d1958y/88otlks1nw.sdf

>  <i_m_source_file_index>  (232) 
23

>  <i_lp_mmshare_version>  (232) 
48012

>  <i_f3d_flags>  (232) 
0

>  <s_epik_input>  (232) 
W0NIM11OKFtDSDNdKVtDSDJdW0NAXTEyW0NAQEhdM1tDQEhdKFtDSDJdMSlbQ0BASF00W0NASF0yW0NAQEhdNVtDSF02W0NAQEhdM1tDQEBIXTVbQ0BASF03W0NASF0oW0NIMl02KVtDQF00N1tPSF0=

>  <s_epik_cmdline>  (232) 
J2VwaWtfcHl0aG9uJywgJy1waHQnLCAnMi4wJywgJy1waCcsICc3LjAnLCAnLXRuJywgJzgnLCAnLW1hJywgJzIwMCcsICctaW1hZScsICc8aW5maWxlLm1hZT4nLCAnLW9tYWUnLCAnPG91dGZpbGUubWFlPic=

>  <r_epik_Ionization_Penalty>  (232) 
0.000719678

>  <r_epik_Ionization_Penalty_Charging>  (232) 
0.00071666

>  <r_epik_Ionization_Penalty_Neutral>  (232) 
3.01773e-06

>  <r_epik_State_Penalty>  (232) 
0.000456802

>  <r_epik_Charging_Adjusted_Penalty>  (232) 
0.00117346

>  <i_epik_Tot_Q>  (232) 
1

>  <i_epik_Tot_abs_Q>  (232) 
1

>  <s_lp_Force_Field>  (232) 
OPLS3e

>  <r_lp_Energy>  (232) 
481.957

>  <b_lp_Chiralities_Consistent>  (232) 
1

>  <s_lp_Variant>  (232) 
68:0-1

>  <s_i_glide_gridfile>  (232) 
pfpi4k_grid

>  <i_i_glide_lignum>  (232) 
23

>  <i_i_glide_rotatable_bonds>  (232) 
3

>  <r_i_docking_score>  (232) 
-2.06467

>  <r_i_glide_ligand_efficiency>  (232) 
-0.108667

>  <r_i_glide_ligand_efficiency_sa>  (232) 
-0.289966

>  <r_i_glide_ligand_efficiency_ln>  (232) 
-0.523437

>  <r_i_glide_gscore>  (232) 
-2.06467

>  <r_i_glide_lipo>  (232) 
-0.389817

>  <r_i_glide_hbond>  (232) 
0

>  <r_i_glide_metal>  (232) 
-0

>  <r_i_glide_rewards>  (232) 
-1.64742

>  <r_i_glide_evdw>  (232) 
-0.0109792

>  <r_i_glide_ecoul>  (232) 
-1.94312

>  <r_i_glide_erotb>  (232) 
0.264586

>  <r_i_glide_esite>  (232) 
0

>  <r_i_glide_emodel>  (232) 
-1.15823

>  <r_i_glide_energy>  (232) 
-1.9541

>  <r_i_glide_einternal>  (232) 
2.85985

>  <r_i_glide_intrahb_reward>  (232) 
-0

>  <i_i_glide_confnum>  (232) 
2

>  <i_i_glide_posenum>  (232) 
1

>  <r_i_glide_eff_state_penalty>  (232) 
0

>  <ligand_id>  (232) 
68

>  <original_smiles>  (232) 
CN(C)CC12CC3C1C1C4CC5C6C1C4C2C3C56O

>  <smiles>  (232) 
[H]OC12C3([H])C([H])([H])C4([H])C5([H])C([H])(C4([H])C4([H])C1([H])C1([H])C([H])([H])C4(C([H])([H])[N+]([H])(C([H])([H])[H])C([H])([H])[H])C15[H])C32[H]

$$$$
69:0:0
     RDKit          3D

 55 58  0  0  1  0  0  0  0  0999 V2000
    3.3746   -1.1777    1.3400 C   0  0  0  0  0  0  0  0  0  0  0  0
    2.8449   -2.6248    1.4424 C   0  0  2  0  0  0  0  0  0  0  0  0
    2.8476   -3.1271    2.8998 C   0  0  0  0  0  0  0  0  0  0  0  0
    3.7215   -4.3992    2.9479 C   0  0  1  0  0  0  0  0  0  0  0  0
    3.4717   -5.3893    4.1351 C   0  0  1  0  0  0  0  0  0  0  0  0
    3.1255   -4.6767    5.4657 C   0  0  0  0  0  0  0  0  0  0  0  0
    2.6300   -5.6146    6.5414 C   0  0  0  0  0  0  0  0  0  0  0  0
    2.2965   -6.9019    6.3502 C   0  0  0  0  0  0  0  0  0  0  0  0
    1.8271   -7.7642    7.5165 C   0  0  0  0  0  0  0  0  0  0  0  0
    0.5655   -8.5636    7.1940 C   0  0  0  0  0  0  0  0  0  0  0  0
   -0.1536   -8.9338    8.1166 O   0  0  0  0  0  0  0  0  0  0  0  0
    0.2775   -8.8754    5.7956 C   0  0  0  0  0  0  0  0  0  0  0  0
    1.0754   -8.4509    4.8000 C   0  0  0  0  0  0  0  0  0  0  0  0
    2.3330   -7.5821    4.9665 C   0  0  2  0  0  0  0  0  0  0  0  0
    3.5371   -8.5355    4.9388 C   0  0  0  0  0  0  0  0  0  0  0  0
    2.5077   -6.5472    3.8212 C   0  0  0  0  0  0  0  0  0  0  0  0
    1.9279   -6.6709    2.6092 C   0  0  0  0  0  0  0  0  0  0  0  0
    2.2564   -5.8053    1.4769 C   0  0  0  0  0  0  0  0  0  0  0  0
    1.5084   -5.7755    0.5022 O   0  0  0  0  0  0  0  0  0  0  0  0
    3.5841   -4.9942    1.5305 C   0  0  2  0  0  0  0  0  0  0  0  0
    4.7533   -5.9549    1.2072 C   0  0  0  0  0  0  0  0  0  0  0  0
    3.6487   -3.6881    0.6560 C   0  0  1  0  0  0  0  0  0  0  0  0
    3.2995   -3.8243   -0.8542 C   0  0  0  0  0  0  0  0  0  0  0  0
    3.5885   -2.6021   -1.7379 C   0  0  0  0  0  0  0  0  0  0  0  0
    3.2317   -2.8350   -3.2096 C   0  0  0  0  0  0  0  0  0  0  0  0
    3.7142   -1.3999   -4.1516 Cl  0  0  0  0  0  0  0  0  0  0  0  0
    4.4294   -1.1165    1.6115 H   0  0  0  0  0  0  0  0  0  0  0  0
    2.8262   -0.5312    2.0270 H   0  0  0  0  0  0  0  0  0  0  0  0
    3.2561   -0.7460    0.3458 H   0  0  0  0  0  0  0  0  0  0  0  0
    1.8171   -2.6449    1.0831 H   0  0  0  0  0  0  0  0  0  0  0  0
    3.2327   -2.3742    3.5882 H   0  0  0  0  0  0  0  0  0  0  0  0
    1.8228   -3.3496    3.1984 H   0  0  0  0  0  0  0  0  0  0  0  0
    4.7502   -4.0477    3.0575 H   0  0  0  0  0  0  0  0  0  0  0  0
    4.4248   -5.8880    4.2959 H   0  0  0  0  0  0  0  0  0  0  0  0
    4.0146   -4.1682    5.8378 H   0  0  0  0  0  0  0  0  0  0  0  0
    2.3474   -3.9212    5.3405 H   0  0  0  0  0  0  0  0  0  0  0  0
    2.5582   -5.1828    7.5312 H   0  0  0  0  0  0  0  0  0  0  0  0
    2.6194   -8.4500    7.8225 H   0  0  0  0  0  0  0  0  0  0  0  0
    1.6145   -7.1261    8.3720 H   0  0  0  0  0  0  0  0  0  0  0  0
   -0.5784   -9.5002    5.5869 H   0  0  0  0  0  0  0  0  0  0  0  0
    0.8296   -8.7995    3.8101 H   0  0  0  0  0  0  0  0  0  0  0  0
    3.6305   -9.0140    3.9650 H   0  0  0  0  0  0  0  0  0  0  0  0
    3.4432   -9.3234    5.6860 H   0  0  0  0  0  0  0  0  0  0  0  0
    4.4682   -8.0074    5.1439 H   0  0  0  0  0  0  0  0  0  0  0  0
    1.2539   -7.4795    2.3712 H   0  0  0  0  0  0  0  0  0  0  0  0
    5.7260   -5.4808    1.3517 H   0  0  0  0  0  0  0  0  0  0  0  0
    4.7129   -6.2928    0.1722 H   0  0  0  0  0  0  0  0  0  0  0  0
    4.7402   -6.8482    1.8329 H   0  0  0  0  0  0  0  0  0  0  0  0
    4.6933   -3.3695    0.6828 H   0  0  0  0  0  0  0  0  0  0  0  0
    3.8947   -4.6520   -1.2428 H   0  0  0  0  0  0  0  0  0  0  0  0
    2.2506   -4.0768   -1.0049 H   0  0  0  0  0  0  0  0  0  0  0  0
    2.9802   -1.7596   -1.4144 H   0  0  0  0  0  0  0  0  0  0  0  0
    4.6367   -2.3109   -1.6484 H   0  0  0  0  0  0  0  0  0  0  0  0
    3.7260   -3.7101   -3.6359 H   0  0  0  0  0  0  0  0  0  0  0  0
    2.1539   -2.9618   -3.3274 H   0  0  0  0  0  0  0  0  0  0  0  0
  1  2  1  0
  1 27  1  0
  1 28  1  0
  1 29  1  0
  2 22  1  0
  2  3  1  0
  2 30  1  6
  3  4  1  0
  3 31  1  0
  3 32  1  0
  4 20  1  0
  4  5  1  0
  4 33  1  1
  5 16  1  0
  5  6  1  0
  5 34  1  1
  6  7  1  0
  6 35  1  0
  6 36  1  0
  7  8  2  0
  7 37  1  0
  8 14  1  0
  8  9  1  0
  9 10  1  0
  9 38  1  0
  9 39  1  0
 10 11  2  0
 10 12  1  0
 12 13  2  0
 12 40  1  0
 13 14  1  0
 13 41  1  0
 14 15  1  1
 14 16  1  0
 15 42  1  0
 15 43  1  0
 15 44  1  0
 16 17  2  0
 17 18  1  0
 17 45  1  0
 18 19  2  0
 18 20  1  0
 20 21  1  6
 20 22  1  0
 21 46  1  0
 21 47  1  0
 21 48  1  0
 22 23  1  0
 22 49  1  6
 23 24  1  0
 23 50  1  0
 23 51  1  0
 24 25  1  0
 24 52  1  0
 24 53  1  0
 25 26  1  0
 25 54  1  0
 25 55  1  0
M  END
>  <i_m_ct_stereo_status>  (233) 
1

>  <s_m_source_file>  (233) 
/var/tmp/pbs.5076255.sched01/tmpi2d1958y/88otlks1nw.sdf

>  <i_m_source_file_index>  (233) 
24

>  <i_lp_mmshare_version>  (233) 
48012

>  <i_f3d_flags>  (233) 
0

>  <s_epik_input>  (233) 
Q2xbQ0gyXVtDSDJdW0NIMl1bQ0BASF0oW0NASF0oW0NIM10pW0NIMl0xKVtDQF0oW0NIM10pKEMoPU8pW0NIXT1DMjMpW0NAQEhdMVtDQEhdMltDSDJdW0NIXT1DKFtDQF0zNFtDSDNdKVtDSDJdQyg9TylbQ0hdPVtDSF00

>  <s_epik_cmdline>  (233) 
J2VwaWtfcHl0aG9uJywgJy1waHQnLCAnMi4wJywgJy1waCcsICc3LjAnLCAnLXRuJywgJzgnLCAnLW1hJywgJzIwMCcsICctaW1hZScsICc8aW5maWxlLm1hZT4nLCAnLW9tYWUnLCAnPG91dGZpbGUubWFlPic=

>  <r_lp_tautomer_probability>  (233) 
1

>  <r_epik_Ionization_Penalty>  (233) 
0

>  <r_epik_Ionization_Penalty_Charging>  (233) 
0

>  <r_epik_Ionization_Penalty_Neutral>  (233) 
0

>  <r_epik_State_Penalty>  (233) 
-0

>  <r_epik_Charging_Adjusted_Penalty>  (233) 
0

>  <i_epik_Tot_Q>  (233) 
0

>  <i_epik_Tot_abs_Q>  (233) 
0

>  <s_lp_Force_Field>  (233) 
OPLS3e

>  <r_lp_Energy>  (233) 
42.4903

>  <b_lp_Chiralities_Consistent>  (233) 
1

>  <s_lp_Variant>  (233) 
69:0-1

>  <s_i_glide_gridfile>  (233) 
pfpi4k_grid

>  <i_i_glide_lignum>  (233) 
24

>  <i_i_glide_rotatable_bonds>  (233) 
3

>  <r_i_docking_score>  (233) 
-2.96255

>  <r_i_glide_ligand_efficiency>  (233) 
-0.113944

>  <r_i_glide_ligand_efficiency_sa>  (233) 
-0.33756

>  <r_i_glide_ligand_efficiency_ln>  (233) 
-0.695746

>  <r_i_glide_gscore>  (233) 
-2.96255

>  <r_i_glide_lipo>  (233) 
-0.174172

>  <r_i_glide_hbond>  (233) 
-0.145029

>  <r_i_glide_metal>  (233) 
-0

>  <r_i_glide_rewards>  (233) 
-0.866401

>  <r_i_glide_evdw>  (233) 
-22.7878

>  <r_i_glide_ecoul>  (233) 
-5.63769

>  <r_i_glide_erotb>  (233) 
0.277828

>  <r_i_glide_esite>  (233) 
-0.0697368

>  <r_i_glide_emodel>  (233) 
-33.1465

>  <r_i_glide_energy>  (233) 
-28.4255

>  <r_i_glide_einternal>  (233) 
0.31105

>  <r_i_glide_intrahb_reward>  (233) 
-0

>  <i_i_glide_confnum>  (233) 
4

>  <i_i_glide_posenum>  (233) 
40

>  <r_i_glide_eff_state_penalty>  (233) 
0

>  <ligand_id>  (233) 
69

>  <original_smiles>  (233) 
CC1CC2C3CC=C4CC(=O)C=CC4(C)C3=CC(=O)C2(C)C1CCCCl

>  <smiles>  (233) 
[H]C1=C([H])C2(C([H])([H])[H])C(=C([H])C([H])([H])C3([H])C2=C([H])C(=O)C2(C([H])([H])[H])C3([H])C([H])([H])C([H])(C([H])([H])[H])C2([H])C([H])([H])C([H])([H])C([H])([H])Cl)C([H])([H])C1=O

$$$$
69:0:1
     RDKit          3D

 55 58  0  0  1  0  0  0  0  0999 V2000
    3.3336   -1.0819    1.6229 C   0  0  0  0  0  0  0  0  0  0  0  0
    2.8518   -2.5480    1.6333 C   0  0  2  0  0  0  0  0  0  0  0  0
    2.8998   -3.1486    3.0539 C   0  0  0  0  0  0  0  0  0  0  0  0
    3.8098   -4.3930    2.9933 C   0  0  1  0  0  0  0  0  0  0  0  0
    3.6138   -5.4685    4.1158 C   0  0  1  0  0  0  0  0  0  0  0  0
    3.2866   -4.8548    5.4971 C   0  0  0  0  0  0  0  0  0  0  0  0
    2.8447   -5.8808    6.5190 C   0  0  0  0  0  0  0  0  0  0  0  0
    2.5458   -7.1608    6.2511 C   0  0  0  0  0  0  0  0  0  0  0  0
    2.1310   -8.1122    7.3689 C   0  0  0  0  0  0  0  0  0  0  0  0
    0.8638   -8.9013    7.0265 C   0  0  0  0  0  0  0  0  0  0  0  0
    0.1612   -9.3130    7.9448 O   0  0  0  0  0  0  0  0  0  0  0  0
    0.5677   -9.1432    5.6141 C   0  0  0  0  0  0  0  0  0  0  0  0
    1.3249   -8.6355    4.6327 C   0  0  0  0  0  0  0  0  0  0  0  0
    2.5595   -7.7382    4.8251 C   0  0  2  0  0  0  0  0  0  0  0  0
    3.7860   -8.6582    4.7005 C   0  0  0  0  0  0  0  0  0  0  0  0
    2.6790   -6.6267    3.7416 C   0  0  0  0  0  0  0  0  0  0  0  0
    2.0670   -6.6868    2.5451 C   0  0  0  0  0  0  0  0  0  0  0  0
    2.3500   -5.7355    1.4645 C   0  0  0  0  0  0  0  0  0  0  0  0
    1.5768   -5.6549    0.5092 O   0  0  0  0  0  0  0  0  0  0  0  0
    3.6554   -4.8945    1.5422 C   0  0  2  0  0  0  0  0  0  0  0  0
    4.8374   -5.7981    1.1279 C   0  0  0  0  0  0  0  0  0  0  0  0
    3.6616   -3.5342    0.7549 C   0  0  1  0  0  0  0  0  0  0  0  0
    3.2793   -3.5863   -0.7502 C   0  0  0  0  0  0  0  0  0  0  0  0
    3.5525   -2.3052   -1.5591 C   0  0  0  0  0  0  0  0  0  0  0  0
    3.1085   -2.4329   -3.0235 C   0  0  0  0  0  0  0  0  0  0  0  0
    4.2163   -3.4785   -3.9283 Cl  0  0  0  0  0  0  0  0  0  0  0  0
    4.3924   -1.0128    1.8731 H   0  0  0  0  0  0  0  0  0  0  0  0
    2.7950   -0.5075    2.3797 H   0  0  0  0  0  0  0  0  0  0  0  0
    3.1741   -0.5839    0.6682 H   0  0  0  0  0  0  0  0  0  0  0  0
    1.8181   -2.5722    1.2984 H   0  0  0  0  0  0  0  0  0  0  0  0
    3.2828   -2.4338    3.7830 H   0  0  0  0  0  0  0  0  0  0  0  0
    1.8886   -3.4198    3.3609 H   0  0  0  0  0  0  0  0  0  0  0  0
    4.8326   -4.0238    3.1046 H   0  0  0  0  0  0  0  0  0  0  0  0
    4.5870   -5.9546    4.2193 H   0  0  0  0  0  0  0  0  0  0  0  0
    4.1740   -4.3514    5.8831 H   0  0  0  0  0  0  0  0  0  0  0  0
    2.4819   -4.1185    5.4464 H   0  0  0  0  0  0  0  0  0  0  0  0
    2.7890   -5.5141    7.5397 H   0  0  0  0  0  0  0  0  0  0  0  0
    2.9394   -8.7999    7.6072 H   0  0  0  0  0  0  0  0  0  0  0  0
    1.9336   -7.5325    8.2656 H   0  0  0  0  0  0  0  0  0  0  0  0
   -0.2643   -9.7871    5.3905 H   0  0  0  0  0  0  0  0  0  0  0  0
    1.0717   -8.9304    3.6295 H   0  0  0  0  0  0  0  0  0  0  0  0
    3.8666   -9.0692    3.6935 H   0  0  0  0  0  0  0  0  0  0  0  0
    3.7338   -9.4990    5.3939 H   0  0  0  0  0  0  0  0  0  0  0  0
    4.7091   -8.1226    4.9184 H   0  0  0  0  0  0  0  0  0  0  0  0
    1.4076   -7.4901    2.2658 H   0  0  0  0  0  0  0  0  0  0  0  0
    5.8003   -5.3094    1.2759 H   0  0  0  0  0  0  0  0  0  0  0  0
    4.7750   -6.0671    0.0744 H   0  0  0  0  0  0  0  0  0  0  0  0
    4.8656   -6.7343    1.6910 H   0  0  0  0  0  0  0  0  0  0  0  0
    4.6978   -3.1874    0.7814 H   0  0  0  0  0  0  0  0  0  0  0  0
    3.8251   -4.4166   -1.2043 H   0  0  0  0  0  0  0  0  0  0  0  0
    2.2221   -3.8062   -0.8773 H   0  0  0  0  0  0  0  0  0  0  0  0
    2.9759   -1.4826   -1.1536 H   0  0  0  0  0  0  0  0  0  0  0  0
    4.6027   -2.0154   -1.5103 H   0  0  0  0  0  0  0  0  0  0  0  0
    2.0960   -2.8430   -3.1081 H   0  0  0  0  0  0  0  0  0  0  0  0
    3.1050   -1.4558   -3.5094 H   0  0  0  0  0  0  0  0  0  0  0  0
  1  2  1  0
  1 27  1  0
  1 28  1  0
  1 29  1  0
  2 22  1  0
  2  3  1  0
  2 30  1  6
  3  4  1  0
  3 31  1  0
  3 32  1  0
  4 20  1  0
  4  5  1  0
  4 33  1  6
  5 16  1  0
  5  6  1  0
  5 34  1  1
  6  7  1  0
  6 35  1  0
  6 36  1  0
  7  8  2  0
  7 37  1  0
  8 14  1  0
  8  9  1  0
  9 10  1  0
  9 38  1  0
  9 39  1  0
 10 11  2  0
 10 12  1  0
 12 13  2  0
 12 40  1  0
 13 14  1  0
 13 41  1  0
 14 15  1  1
 14 16  1  0
 15 42  1  0
 15 43  1  0
 15 44  1  0
 16 17  2  0
 17 18  1  0
 17 45  1  0
 18 19  2  0
 18 20  1  0
 20 21  1  6
 20 22  1  0
 21 46  1  0
 21 47  1  0
 21 48  1  0
 22 23  1  0
 22 49  1  6
 23 24  1  0
 23 50  1  0
 23 51  1  0
 24 25  1  0
 24 52  1  0
 24 53  1  0
 25 26  1  0
 25 54  1  0
 25 55  1  0
M  END
>  <i_m_ct_stereo_status>  (234) 
1

>  <s_m_source_file>  (234) 
/var/tmp/pbs.5076255.sched01/tmpi2d1958y/88otlks1nw.sdf

>  <i_m_source_file_index>  (234) 
24

>  <i_lp_mmshare_version>  (234) 
48012

>  <i_f3d_flags>  (234) 
0

>  <s_epik_input>  (234) 
Q2xbQ0gyXVtDSDJdW0NIMl1bQ0BASF0oW0NASF0oW0NIM10pW0NIMl0xKVtDQF0oW0NIM10pKEMoPU8pW0NIXT1DMjMpW0NAQEhdMVtDQEhdMltDSDJdW0NIXT1DKFtDQF0zNFtDSDNdKVtDSDJdQyg9TylbQ0hdPVtDSF00

>  <s_epik_cmdline>  (234) 
J2VwaWtfcHl0aG9uJywgJy1waHQnLCAnMi4wJywgJy1waCcsICc3LjAnLCAnLXRuJywgJzgnLCAnLW1hJywgJzIwMCcsICctaW1hZScsICc8aW5maWxlLm1hZT4nLCAnLW9tYWUnLCAnPG91dGZpbGUubWFlPic=

>  <r_lp_tautomer_probability>  (234) 
1

>  <r_epik_Ionization_Penalty>  (234) 
0

>  <r_epik_Ionization_Penalty_Charging>  (234) 
0

>  <r_epik_Ionization_Penalty_Neutral>  (234) 
0

>  <r_epik_State_Penalty>  (234) 
-0

>  <r_epik_Charging_Adjusted_Penalty>  (234) 
0

>  <i_epik_Tot_Q>  (234) 
0

>  <i_epik_Tot_abs_Q>  (234) 
0

>  <s_lp_Force_Field>  (234) 
OPLS3e

>  <r_lp_Energy>  (234) 
42.4903

>  <b_lp_Chiralities_Consistent>  (234) 
1

>  <s_lp_Variant>  (234) 
69:0-1

>  <s_i_glide_gridfile>  (234) 
pfpi4k_grid

>  <i_i_glide_lignum>  (234) 
24

>  <i_i_glide_rotatable_bonds>  (234) 
3

>  <r_i_docking_score>  (234) 
-2.76974

>  <r_i_glide_ligand_efficiency>  (234) 
-0.106528

>  <r_i_glide_ligand_efficiency_sa>  (234) 
-0.31559

>  <r_i_glide_ligand_efficiency_ln>  (234) 
-0.650465

>  <r_i_glide_gscore>  (234) 
-2.76974

>  <r_i_glide_lipo>  (234) 
-0.173294

>  <r_i_glide_hbond>  (234) 
-0.132526

>  <r_i_glide_metal>  (234) 
-0

>  <r_i_glide_rewards>  (234) 
-0.866401

>  <r_i_glide_evdw>  (234) 
-21.9041

>  <r_i_glide_ecoul>  (234) 
-4.66462

>  <r_i_glide_erotb>  (234) 
0.277828

>  <r_i_glide_esite>  (234) 
-0.080452

>  <r_i_glide_emodel>  (234) 
-30.6973

>  <r_i_glide_energy>  (234) 
-26.5687

>  <r_i_glide_einternal>  (234) 
0.881757

>  <r_i_glide_intrahb_reward>  (234) 
-0

>  <i_i_glide_confnum>  (234) 
4

>  <i_i_glide_posenum>  (234) 
8

>  <r_i_glide_eff_state_penalty>  (234) 
0

>  <ligand_id>  (234) 
69

>  <original_smiles>  (234) 
CC1CC2C3CC=C4CC(=O)C=CC4(C)C3=CC(=O)C2(C)C1CCCCl

>  <smiles>  (234) 
[H]C1=C([H])C2(C([H])([H])[H])C(=C([H])C([H])([H])C3([H])C2=C([H])C(=O)C2(C([H])([H])[H])C3([H])C([H])([H])C([H])(C([H])([H])[H])C2([H])C([H])([H])C([H])([H])C([H])([H])Cl)C([H])([H])C1=O

$$$$
69:0:2
     RDKit          3D

 55 58  0  0  1  0  0  0  0  0999 V2000
    4.7472   -4.2249   -0.7681 C   0  0  0  0  0  0  0  0  0  0  0  0
    3.7435   -3.9956    0.3790 C   0  0  2  0  0  0  0  0  0  0  0  0
    3.3954   -2.5022    0.5515 C   0  0  0  0  0  0  0  0  0  0  0  0
    3.7570   -2.1178    2.0014 C   0  0  1  0  0  0  0  0  0  0  0  0
    3.0218   -0.8765    2.6101 C   0  0  1  0  0  0  0  0  0  0  0  0
    2.7866    0.2590    1.5871 C   0  0  0  0  0  0  0  0  0  0  0  0
    1.8581    1.3439    2.0860 C   0  0  0  0  0  0  0  0  0  0  0  0
    1.1211    1.2687    3.2053 C   0  0  0  0  0  0  0  0  0  0  0  0
    0.2366    2.4431    3.6164 C   0  0  0  0  0  0  0  0  0  0  0  0
   -1.1702    2.0074    4.0176 C   0  0  0  0  0  0  0  0  0  0  0  0
   -2.0716    2.8426    4.0184 O   0  0  0  0  0  0  0  0  0  0  0  0
   -1.3742    0.6310    4.4766 C   0  0  0  0  0  0  0  0  0  0  0  0
   -0.3602   -0.2494    4.5330 C   0  0  0  0  0  0  0  0  0  0  0  0
    1.0897    0.0223    4.1081 C   0  0  2  0  0  0  0  0  0  0  0  0
    1.8762    0.3480    5.3899 C   0  0  0  0  0  0  0  0  0  0  0  0
    1.7631   -1.2041    3.4287 C   0  0  0  0  0  0  0  0  0  0  0  0
    1.3327   -2.4750    3.5812 C   0  0  0  0  0  0  0  0  0  0  0  0
    2.0925   -3.6298    3.0862 C   0  0  0  0  0  0  0  0  0  0  0  0
    1.5452   -4.7232    2.9532 O   0  0  0  0  0  0  0  0  0  0  0  0
    3.5997   -3.4390    2.7821 C   0  0  2  0  0  0  0  0  0  0  0  0
    4.3783   -3.4108    4.1162 C   0  0  0  0  0  0  0  0  0  0  0  0
    4.2261   -4.4646    1.7745 C   0  0  1  0  0  0  0  0  0  0  0  0
    4.0234   -5.9808    2.0758 C   0  0  0  0  0  0  0  0  0  0  0  0
    5.0684   -6.9281    1.4545 C   0  0  0  0  0  0  0  0  0  0  0  0
    4.8641   -8.3908    1.8730 C   0  0  0  0  0  0  0  0  0  0  0  0
    6.2114   -9.3978    1.2805 Cl  0  0  0  0  0  0  0  0  0  0  0  0
    5.7227   -3.7907   -0.5455 H   0  0  0  0  0  0  0  0  0  0  0  0
    4.3820   -3.7706   -1.6897 H   0  0  0  0  0  0  0  0  0  0  0  0
    4.8906   -5.2801   -0.9915 H   0  0  0  0  0  0  0  0  0  0  0  0
    2.8216   -4.5242    0.1328 H   0  0  0  0  0  0  0  0  0  0  0  0
    3.9264   -1.8699   -0.1614 H   0  0  0  0  0  0  0  0  0  0  0  0
    2.3279   -2.3691    0.3705 H   0  0  0  0  0  0  0  0  0  0  0  0
    4.8209   -1.8719    1.9873 H   0  0  0  0  0  0  0  0  0  0  0  0
    3.7110   -0.4792    3.3531 H   0  0  0  0  0  0  0  0  0  0  0  0
    3.7416    0.7159    1.3285 H   0  0  0  0  0  0  0  0  0  0  0  0
    2.3434   -0.1091    0.6621 H   0  0  0  0  0  0  0  0  0  0  0  0
    1.8090    2.2376    1.4766 H   0  0  0  0  0  0  0  0  0  0  0  0
    0.6910    2.9754    4.4519 H   0  0  0  0  0  0  0  0  0  0  0  0
    0.1580    3.1521    2.7931 H   0  0  0  0  0  0  0  0  0  0  0  0
   -2.3613    0.3615    4.8116 H   0  0  0  0  0  0  0  0  0  0  0  0
   -0.5825   -1.2115    4.9622 H   0  0  0  0  0  0  0  0  0  0  0  0
    1.9182   -0.5167    6.0529 H   0  0  0  0  0  0  0  0  0  0  0  0
    1.4208    1.1698    5.9460 H   0  0  0  0  0  0  0  0  0  0  0  0
    2.9016    0.6455    5.1634 H   0  0  0  0  0  0  0  0  0  0  0  0
    0.4541   -2.7329    4.1476 H   0  0  0  0  0  0  0  0  0  0  0  0
    5.4291   -3.1586    3.9667 H   0  0  0  0  0  0  0  0  0  0  0  0
    4.3470   -4.3798    4.6139 H   0  0  0  0  0  0  0  0  0  0  0  0
    3.9677   -2.6815    4.8158 H   0  0  0  0  0  0  0  0  0  0  0  0
    5.3039   -4.2909    1.8167 H   0  0  0  0  0  0  0  0  0  0  0  0
    4.0554   -6.1274    3.1558 H   0  0  0  0  0  0  0  0  0  0  0  0
    3.0339   -6.3063    1.7568 H   0  0  0  0  0  0  0  0  0  0  0  0
    5.0233   -6.8922    0.3692 H   0  0  0  0  0  0  0  0  0  0  0  0
    6.0689   -6.6034    1.7423 H   0  0  0  0  0  0  0  0  0  0  0  0
    4.8259   -8.5016    2.9564 H   0  0  0  0  0  0  0  0  0  0  0  0
    3.9419   -8.7988    1.4572 H   0  0  0  0  0  0  0  0  0  0  0  0
  1  2  1  0
  1 27  1  0
  1 28  1  0
  1 29  1  0
  2 22  1  0
  2  3  1  0
  2 30  1  6
  3  4  1  0
  3 31  1  0
  3 32  1  0
  4 20  1  0
  4  5  1  0
  4 33  1  6
  5 16  1  0
  5  6  1  0
  5 34  1  1
  6  7  1  0
  6 35  1  0
  6 36  1  0
  7  8  2  0
  7 37  1  0
  8 14  1  0
  8  9  1  0
  9 10  1  0
  9 38  1  0
  9 39  1  0
 10 11  2  0
 10 12  1  0
 12 13  2  0
 12 40  1  0
 13 14  1  0
 13 41  1  0
 14 15  1  1
 14 16  1  0
 15 42  1  0
 15 43  1  0
 15 44  1  0
 16 17  2  0
 17 18  1  0
 17 45  1  0
 18 19  2  0
 18 20  1  0
 20 21  1  1
 20 22  1  0
 21 46  1  0
 21 47  1  0
 21 48  1  0
 22 23  1  0
 22 49  1  6
 23 24  1  0
 23 50  1  0
 23 51  1  0
 24 25  1  0
 24 52  1  0
 24 53  1  0
 25 26  1  0
 25 54  1  0
 25 55  1  0
M  END
>  <i_m_ct_stereo_status>  (235) 
1

>  <s_m_source_file>  (235) 
/var/tmp/pbs.5076255.sched01/tmpi2d1958y/88otlks1nw.sdf

>  <i_m_source_file_index>  (235) 
24

>  <i_lp_mmshare_version>  (235) 
48012

>  <i_f3d_flags>  (235) 
0

>  <s_epik_input>  (235) 
Q2xbQ0gyXVtDSDJdW0NIMl1bQ0BASF0oW0NASF0oW0NIM10pW0NIMl0xKVtDQF0oW0NIM10pKEMoPU8pW0NIXT1DMjMpW0NAQEhdMVtDQEhdMltDSDJdW0NIXT1DKFtDQF0zNFtDSDNdKVtDSDJdQyg9TylbQ0hdPVtDSF00

>  <s_epik_cmdline>  (235) 
J2VwaWtfcHl0aG9uJywgJy1waHQnLCAnMi4wJywgJy1waCcsICc3LjAnLCAnLXRuJywgJzgnLCAnLW1hJywgJzIwMCcsICctaW1hZScsICc8aW5maWxlLm1hZT4nLCAnLW9tYWUnLCAnPG91dGZpbGUubWFlPic=

>  <r_lp_tautomer_probability>  (235) 
1

>  <r_epik_Ionization_Penalty>  (235) 
0

>  <r_epik_Ionization_Penalty_Charging>  (235) 
0

>  <r_epik_Ionization_Penalty_Neutral>  (235) 
0

>  <r_epik_State_Penalty>  (235) 
-0

>  <r_epik_Charging_Adjusted_Penalty>  (235) 
0

>  <i_epik_Tot_Q>  (235) 
0

>  <i_epik_Tot_abs_Q>  (235) 
0

>  <s_lp_Force_Field>  (235) 
OPLS3e

>  <r_lp_Energy>  (235) 
42.4903

>  <b_lp_Chiralities_Consistent>  (235) 
1

>  <s_lp_Variant>  (235) 
69:0-1

>  <s_i_glide_gridfile>  (235) 
pfpi4k_grid

>  <i_i_glide_lignum>  (235) 
24

>  <i_i_glide_rotatable_bonds>  (235) 
3

>  <r_i_docking_score>  (235) 
-2.33891

>  <r_i_glide_ligand_efficiency>  (235) 
-0.0899583

>  <r_i_glide_ligand_efficiency_sa>  (235) 
-0.266501

>  <r_i_glide_ligand_efficiency_ln>  (235) 
-0.549286

>  <r_i_glide_gscore>  (235) 
-2.33891

>  <r_i_glide_lipo>  (235) 
-0.251432

>  <r_i_glide_hbond>  (235) 
0

>  <r_i_glide_metal>  (235) 
-0

>  <r_i_glide_rewards>  (235) 
-0.866401

>  <r_i_glide_evdw>  (235) 
-24.1625

>  <r_i_glide_ecoul>  (235) 
-1.75269

>  <r_i_glide_erotb>  (235) 
0.277828

>  <r_i_glide_esite>  (235) 
-0.0278819

>  <r_i_glide_emodel>  (235) 
-29.5516

>  <r_i_glide_energy>  (235) 
-25.9152

>  <r_i_glide_einternal>  (235) 
0.316523

>  <r_i_glide_intrahb_reward>  (235) 
-0

>  <i_i_glide_confnum>  (235) 
4

>  <i_i_glide_posenum>  (235) 
20

>  <r_i_glide_eff_state_penalty>  (235) 
0

>  <ligand_id>  (235) 
69

>  <original_smiles>  (235) 
CC1CC2C3CC=C4CC(=O)C=CC4(C)C3=CC(=O)C2(C)C1CCCCl

>  <smiles>  (235) 
[H]C1=C([H])C2(C([H])([H])[H])C(=C([H])C([H])([H])C3([H])C2=C([H])C(=O)C2(C([H])([H])[H])C3([H])C([H])([H])C([H])(C([H])([H])[H])C2([H])C([H])([H])C([H])([H])C([H])([H])Cl)C([H])([H])C1=O

$$$$
70:0:0
     RDKit          3D

 37 39  0  0  1  0  0  0  0  0999 V2000
   -2.0911    3.0920    3.1784 C   0  0  0  0  0  0  0  0  0  0  0  0
   -0.7249    2.3862    3.3818 C   0  0  0  0  0  0  0  0  0  0  0  0
   -0.9516    0.6931    4.0398 S   0  0  0  0  0  0  0  0  0  0  0  0
   -1.4798    1.0140    5.7475 C   0  0  0  0  0  0  0  0  0  0  0  0
   -2.0825    0.1532    6.3755 O   0  0  0  0  0  0  0  0  0  0  0  0
   -1.1187    2.2713    6.2001 N   0  0  0  0  0  0  0  0  0  0  0  0
   -1.4853    2.8854    7.4779 C   0  0  1  0  0  0  0  0  0  0  0  0
   -0.8079    4.2827    7.5360 C   0  0  0  0  0  0  0  0  0  0  0  0
   -1.1644    5.0000    8.8662 C   0  0  2  0  0  0  0  0  0  0  0  0
   -0.6696    4.1374   10.0538 C   0  0  0  0  0  0  0  0  0  0  0  0
   -1.3580    2.7658   10.0049 C   0  0  1  0  0  0  0  0  0  0  0  0
   -2.8930    2.9427   10.0814 C   0  0  0  0  0  0  0  0  0  0  0  0
   -3.3792    3.8089    8.8991 C   0  0  1  0  0  0  0  0  0  0  0  0
   -2.6984    5.1879    8.9665 C   0  0  0  0  0  0  0  0  0  0  0  0
   -3.0140    3.1069    7.5608 C   0  0  0  0  0  0  0  0  0  0  0  0
   -0.9828    2.0552    8.6874 C   0  0  0  0  0  0  0  0  0  0  0  0
   -1.9569    4.1082    2.8035 H   0  0  0  0  0  0  0  0  0  0  0  0
   -2.6805    3.1486    4.0995 H   0  0  0  0  0  0  0  0  0  0  0  0
   -2.6960    2.5422    2.4595 H   0  0  0  0  0  0  0  0  0  0  0  0
   -0.2560    2.2687    2.3996 H   0  0  0  0  0  0  0  0  0  0  0  0
   -0.0413    2.9999    3.9755 H   0  0  0  0  0  0  0  0  0  0  0  0
   -0.5749    2.8235    5.5696 H   0  0  0  0  0  0  0  0  0  0  0  0
    0.2799    4.2025    7.4619 H   0  0  0  0  0  0  0  0  0  0  0  0
   -1.1132    4.9109    6.7026 H   0  0  0  0  0  0  0  0  0  0  0  0
   -0.6780    5.9848    8.9087 H   0  0  0  0  0  0  0  0  0  0  0  0
    0.4161    4.0211    9.9976 H   0  0  0  0  0  0  0  0  0  0  0  0
   -0.8845    4.6408   10.9959 H   0  0  0  0  0  0  0  0  0  0  0  0
   -1.0224    2.1595   10.8463 H   0  0  0  0  0  0  0  0  0  0  0  0
   -3.3876    1.9777   10.0435 H   0  0  0  0  0  0  0  0  0  0  0  0
   -3.1685    3.4039   11.0311 H   0  0  0  0  0  0  0  0  0  0  0  0
   -4.4570    3.9424    8.9662 H   0  0  0  0  0  0  0  0  0  0  0  0
   -2.9585    5.6824    9.8969 H   0  0  0  0  0  0  0  0  0  0  0  0
   -3.0593    5.8233    8.1593 H   0  0  0  0  0  0  0  0  0  0  0  0
   -3.3501    3.7072    6.7173 H   0  0  0  0  0  0  0  0  0  0  0  0
   -3.5681    2.1662    7.5013 H   0  0  0  0  0  0  0  0  0  0  0  0
   -1.4182    1.0526    8.7148 H   0  0  0  0  0  0  0  0  0  0  0  0
    0.0983    1.9257    8.6388 H   0  0  0  0  0  0  0  0  0  0  0  0
  1  2  1  0
  1 17  1  0
  1 18  1  0
  1 19  1  0
  2  3  1  0
  2 20  1  0
  2 21  1  0
  3  4  1  0
  4  5  2  0
  4  6  1  0
  7  6  1  6
  6 22  1  0
  7 15  1  0
  7 16  1  0
  7  8  1  0
  8  9  1  0
  8 23  1  0
  8 24  1  0
  9 14  1  0
  9 10  1  0
  9 25  1  6
 10 11  1  0
 10 26  1  0
 10 27  1  0
 11 12  1  0
 11 16  1  0
 11 28  1  1
 12 13  1  0
 12 29  1  0
 12 30  1  0
 13 14  1  0
 13 15  1  0
 13 31  1  1
 14 32  1  0
 14 33  1  0
 15 34  1  0
 15 35  1  0
 16 36  1  0
 16 37  1  0
M  END
>  <i_m_ct_stereo_status>  (236) 
1

>  <s_m_source_file>  (236) 
/var/tmp/pbs.5076255.sched01/tmpi2d1958y/88otlks1nw.sdf

>  <i_m_source_file_index>  (236) 
25

>  <i_lp_mmshare_version>  (236) 
48012

>  <i_f3d_flags>  (236) 
0

>  <s_epik_input>  (236) 
W0NIM11bQ0gyXVNDKD1PKVtOSF1DMTJbQ0gyXVtDQEBIXTNbQ0gyXVtDQEhdKFtDSDJdMilbQ0gyXVtDQEBIXShbQ0gyXTMpW0NIMl0x

>  <s_epik_cmdline>  (236) 
J2VwaWtfcHl0aG9uJywgJy1waHQnLCAnMi4wJywgJy1waCcsICc3LjAnLCAnLXRuJywgJzgnLCAnLW1hJywgJzIwMCcsICctaW1hZScsICc8aW5maWxlLm1hZT4nLCAnLW9tYWUnLCAnPG91dGZpbGUubWFlPic=

>  <r_lp_tautomer_probability>  (236) 
1

>  <r_epik_Ionization_Penalty>  (236) 
1.10308e-06

>  <r_epik_Ionization_Penalty_Charging>  (236) 
0

>  <r_epik_Ionization_Penalty_Neutral>  (236) 
1.10308e-06

>  <r_epik_State_Penalty>  (236) 
-0

>  <r_epik_Charging_Adjusted_Penalty>  (236) 
0

>  <i_epik_Tot_Q>  (236) 
0

>  <i_epik_Tot_abs_Q>  (236) 
0

>  <s_lp_Force_Field>  (236) 
OPLS3e

>  <r_lp_Energy>  (236) 
-5.97334

>  <b_lp_Chiralities_Consistent>  (236) 
1

>  <s_lp_Variant>  (236) 
70:0-1

>  <s_i_glide_gridfile>  (236) 
pfpi4k_grid

>  <i_i_glide_lignum>  (236) 
25

>  <i_i_glide_rotatable_bonds>  (236) 
4

>  <r_i_docking_score>  (236) 
-3.04168

>  <r_i_glide_ligand_efficiency>  (236) 
-0.190105

>  <r_i_glide_ligand_efficiency_sa>  (236) 
-0.479034

>  <r_i_glide_ligand_efficiency_ln>  (236) 
-0.806257

>  <r_i_glide_gscore>  (236) 
-3.04168

>  <r_i_glide_lipo>  (236) 
-0.240506

>  <r_i_glide_hbond>  (236) 
-0.16

>  <r_i_glide_metal>  (236) 
-0

>  <r_i_glide_rewards>  (236) 
-1.77697

>  <r_i_glide_evdw>  (236) 
-15.9381

>  <r_i_glide_ecoul>  (236) 
-4.19823

>  <r_i_glide_erotb>  (236) 
0.603154

>  <r_i_glide_esite>  (236) 
-0.0407155

>  <r_i_glide_emodel>  (236) 
-22.9525

>  <r_i_glide_energy>  (236) 
-20.1364

>  <r_i_glide_einternal>  (236) 
3.23836

>  <r_i_glide_intrahb_reward>  (236) 
-0

>  <i_i_glide_confnum>  (236) 
6

>  <i_i_glide_posenum>  (236) 
1

>  <r_i_glide_eff_state_penalty>  (236) 
0

>  <ligand_id>  (236) 
70

>  <original_smiles>  (236) 
CCSC(=O)NC12CC3CC(CC(C3)C1)C2

>  <smiles>  (236) 
[H]N(C(=O)SC([H])([H])C([H])([H])[H])C12C([H])([H])C3([H])C([H])([H])C([H])(C([H])([H])C([H])(C3([H])[H])C1([H])[H])C2([H])[H]

$$$$
70:0:1
     RDKit          3D

 37 39  0  0  1  0  0  0  0  0999 V2000
    0.8368    1.9507    2.3517 C   0  0  0  0  0  0  0  0  0  0  0  0
    0.0951    2.0577    3.6766 C   0  0  0  0  0  0  0  0  0  0  0  0
   -0.8074    0.5186    4.0781 S   0  0  0  0  0  0  0  0  0  0  0  0
   -1.4582    0.9365    5.7177 C   0  0  0  0  0  0  0  0  0  0  0  0
   -2.1777    0.1452    6.3171 O   0  0  0  0  0  0  0  0  0  0  0  0
   -1.0197    2.1820    6.1856 N   0  0  0  0  0  0  0  0  0  0  0  0
   -1.3639    2.7947    7.4776 C   0  0  1  0  0  0  0  0  0  0  0  0
   -0.5952    4.1365    7.5414 C   0  0  0  0  0  0  0  0  0  0  0  0
   -0.8965    4.8732    8.8634 C   0  0  2  0  0  0  0  0  0  0  0  0
   -0.4762    3.9858   10.0503 C   0  0  0  0  0  0  0  0  0  0  0  0
   -1.2594    2.6588   10.0052 C   0  0  1  0  0  0  0  0  0  0  0  0
   -2.7739    2.9470   10.0682 C   0  0  0  0  0  0  0  0  0  0  0  0
   -3.1903    3.8361    8.8842 C   0  0  1  0  0  0  0  0  0  0  0  0
   -2.4073    5.1550    8.9561 C   0  0  0  0  0  0  0  0  0  0  0  0
   -2.8777    3.1108    7.5579 C   0  0  0  0  0  0  0  0  0  0  0  0
   -0.9303    1.9219    8.6808 C   0  0  0  0  0  0  0  0  0  0  0  0
    1.3782    2.8835    2.1688 H   0  0  0  0  0  0  0  0  0  0  0  0
    0.1495    1.7587    1.5173 H   0  0  0  0  0  0  0  0  0  0  0  0
    1.5598    1.1284    2.4007 H   0  0  0  0  0  0  0  0  0  0  0  0
    0.8300    2.2764    4.4497 H   0  0  0  0  0  0  0  0  0  0  0  0
   -0.6006    2.8953    3.6306 H   0  0  0  0  0  0  0  0  0  0  0  0
   -0.4329    2.7064    5.5661 H   0  0  0  0  0  0  0  0  0  0  0  0
    0.4758    3.9719    7.4676 H   0  0  0  0  0  0  0  0  0  0  0  0
   -0.8592    4.7850    6.7055 H   0  0  0  0  0  0  0  0  0  0  0  0
   -0.3444    5.8157    8.9072 H   0  0  0  0  0  0  0  0  0  0  0  0
    0.5964    3.7955   10.0142 H   0  0  0  0  0  0  0  0  0  0  0  0
   -0.6547    4.4964   10.9981 H   0  0  0  0  0  0  0  0  0  0  0  0
   -0.9626    2.0343   10.8446 H   0  0  0  0  0  0  0  0  0  0  0  0
   -3.3340    2.0149   10.0328 H   0  0  0  0  0  0  0  0  0  0  0  0
   -3.0219    3.4162   11.0218 H   0  0  0  0  0  0  0  0  0  0  0  0
   -4.2599    4.0481    8.9521 H   0  0  0  0  0  0  0  0  0  0  0  0
   -2.6382    5.6681    9.8862 H   0  0  0  0  0  0  0  0  0  0  0  0
   -2.7142    5.8301    8.1347 H   0  0  0  0  0  0  0  0  0  0  0  0
   -3.1700    3.7377    6.7154 H   0  0  0  0  0  0  0  0  0  0  0  0
   -3.4845    2.2114    7.4930 H   0  0  0  0  0  0  0  0  0  0  0  0
   -1.4181    0.9439    8.6957 H   0  0  0  0  0  0  0  0  0  0  0  0
    0.1459    1.7272    8.6365 H   0  0  0  0  0  0  0  0  0  0  0  0
  1  2  1  0
  1 17  1  0
  1 18  1  0
  1 19  1  0
  2  3  1  0
  2 20  1  0
  2 21  1  0
  3  4  1  0
  4  5  2  0
  4  6  1  0
  7  6  1  6
  6 22  1  0
  7 15  1  0
  7 16  1  0
  7  8  1  0
  8  9  1  0
  8 23  1  0
  8 24  1  0
  9 14  1  0
  9 10  1  0
  9 25  1  6
 10 11  1  0
 10 26  1  0
 10 27  1  0
 11 12  1  0
 11 16  1  0
 11 28  1  1
 12 13  1  0
 12 29  1  0
 12 30  1  0
 13 14  1  0
 13 15  1  0
 13 31  1  1
 14 32  1  0
 14 33  1  0
 15 34  1  0
 15 35  1  0
 16 36  1  0
 16 37  1  0
M  END
>  <i_m_ct_stereo_status>  (237) 
1

>  <s_m_source_file>  (237) 
/var/tmp/pbs.5076255.sched01/tmpi2d1958y/88otlks1nw.sdf

>  <i_m_source_file_index>  (237) 
25

>  <i_lp_mmshare_version>  (237) 
48012

>  <i_f3d_flags>  (237) 
0

>  <s_epik_input>  (237) 
W0NIM11bQ0gyXVNDKD1PKVtOSF1DMTJbQ0gyXVtDQEBIXTNbQ0gyXVtDQEhdKFtDSDJdMilbQ0gyXVtDQEBIXShbQ0gyXTMpW0NIMl0x

>  <s_epik_cmdline>  (237) 
J2VwaWtfcHl0aG9uJywgJy1waHQnLCAnMi4wJywgJy1waCcsICc3LjAnLCAnLXRuJywgJzgnLCAnLW1hJywgJzIwMCcsICctaW1hZScsICc8aW5maWxlLm1hZT4nLCAnLW9tYWUnLCAnPG91dGZpbGUubWFlPic=

>  <r_lp_tautomer_probability>  (237) 
1

>  <r_epik_Ionization_Penalty>  (237) 
1.10308e-06

>  <r_epik_Ionization_Penalty_Charging>  (237) 
0

>  <r_epik_Ionization_Penalty_Neutral>  (237) 
1.10308e-06

>  <r_epik_State_Penalty>  (237) 
-0

>  <r_epik_Charging_Adjusted_Penalty>  (237) 
0

>  <i_epik_Tot_Q>  (237) 
0

>  <i_epik_Tot_abs_Q>  (237) 
0

>  <s_lp_Force_Field>  (237) 
OPLS3e

>  <r_lp_Energy>  (237) 
-5.97334

>  <b_lp_Chiralities_Consistent>  (237) 
1

>  <s_lp_Variant>  (237) 
70:0-1

>  <s_i_glide_gridfile>  (237) 
pfpi4k_grid

>  <i_i_glide_lignum>  (237) 
25

>  <i_i_glide_rotatable_bonds>  (237) 
4

>  <r_i_docking_score>  (237) 
-2.98364

>  <r_i_glide_ligand_efficiency>  (237) 
-0.186478

>  <r_i_glide_ligand_efficiency_sa>  (237) 
-0.469894

>  <r_i_glide_ligand_efficiency_ln>  (237) 
-0.790873

>  <r_i_glide_gscore>  (237) 
-2.98364

>  <r_i_glide_lipo>  (237) 
-0.227811

>  <r_i_glide_hbond>  (237) 
-0.16

>  <r_i_glide_metal>  (237) 
-0

>  <r_i_glide_rewards>  (237) 
-1.77697

>  <r_i_glide_evdw>  (237) 
-14.9507

>  <r_i_glide_ecoul>  (237) 
-4.20285

>  <r_i_glide_erotb>  (237) 
0.603154

>  <r_i_glide_esite>  (237) 
-0.0440506

>  <r_i_glide_emodel>  (237) 
-22.1609

>  <r_i_glide_energy>  (237) 
-19.1536

>  <r_i_glide_einternal>  (237) 
2.5687

>  <r_i_glide_intrahb_reward>  (237) 
-0

>  <i_i_glide_confnum>  (237) 
1

>  <i_i_glide_posenum>  (237) 
36

>  <r_i_glide_eff_state_penalty>  (237) 
0

>  <ligand_id>  (237) 
70

>  <original_smiles>  (237) 
CCSC(=O)NC12CC3CC(CC(C3)C1)C2

>  <smiles>  (237) 
[H]N(C(=O)SC([H])([H])C([H])([H])[H])C12C([H])([H])C3([H])C([H])([H])C([H])(C([H])([H])C([H])(C3([H])[H])C1([H])[H])C2([H])[H]

$$$$
70:0:2
     RDKit          3D

 37 39  0  0  1  0  0  0  0  0999 V2000
    0.7659   -1.8083    3.4717 C   0  0  0  0  0  0  0  0  0  0  0  0
   -0.3035   -1.1873    4.3661 C   0  0  0  0  0  0  0  0  0  0  0  0
   -0.2993    0.6255    4.2545 S   0  0  0  0  0  0  0  0  0  0  0  0
   -1.1778    1.0028    5.7914 C   0  0  0  0  0  0  0  0  0  0  0  0
   -1.8195    0.1459    6.4002 O   0  0  0  0  0  0  0  0  0  0  0  0
   -0.9887    2.3182    6.1821 N   0  0  0  0  0  0  0  0  0  0  0  0
   -1.4421    2.8896    7.4576 C   0  0  1  0  0  0  0  0  0  0  0  0
   -0.8702    4.3254    7.5791 C   0  0  0  0  0  0  0  0  0  0  0  0
   -1.3351    4.9730    8.9060 C   0  0  2  0  0  0  0  0  0  0  0  0
   -0.8210    4.1331   10.0934 C   0  0  0  0  0  0  0  0  0  0  0  0
   -1.4057    2.7111    9.9945 C   0  0  1  0  0  0  0  0  0  0  0  0
   -2.9466    2.7749   10.0217 C   0  0  0  0  0  0  0  0  0  0  0  0
   -3.4496    3.6131    8.8334 C   0  0  1  0  0  0  0  0  0  0  0  0
   -2.8762    5.0387    8.9348 C   0  0  0  0  0  0  0  0  0  0  0  0
   -2.9903    2.9688    7.5021 C   0  0  0  0  0  0  0  0  0  0  0  0
   -0.9349    2.0606    8.6759 C   0  0  0  0  0  0  0  0  0  0  0  0
    0.7615   -2.8948    3.5596 H   0  0  0  0  0  0  0  0  0  0  0  0
    1.7556   -1.4487    3.7587 H   0  0  0  0  0  0  0  0  0  0  0  0
    0.6147   -1.5432    2.4260 H   0  0  0  0  0  0  0  0  0  0  0  0
   -1.2936   -1.5564    4.1092 H   0  0  0  0  0  0  0  0  0  0  0  0
   -0.1122   -1.4909    5.3935 H   0  0  0  0  0  0  0  0  0  0  0  0
   -0.4561    2.8970    5.5435 H   0  0  0  0  0  0  0  0  0  0  0  0
    0.2212    4.3083    7.5477 H   0  0  0  0  0  0  0  0  0  0  0  0
   -1.1912    4.9400    6.7370 H   0  0  0  0  0  0  0  0  0  0  0  0
   -0.9297    5.9839    8.9828 H   0  0  0  0  0  0  0  0  0  0  0  0
    0.2694    4.0907   10.0849 H   0  0  0  0  0  0  0  0  0  0  0  0
   -1.1029    4.5920   11.0436 H   0  0  0  0  0  0  0  0  0  0  0  0
   -1.0569    2.1162   10.8380 H   0  0  0  0  0  0  0  0  0  0  0  0
   -3.3693    1.7731    9.9721 H   0  0  0  0  0  0  0  0  0  0  0  0
   -3.2920    3.2044   10.9648 H   0  0  0  0  0  0  0  0  0  0  0  0
   -4.5379    3.6593    8.8714 H   0  0  0  0  0  0  0  0  0  0  0  0
   -3.2118    5.5107    9.8592 H   0  0  0  0  0  0  0  0  0  0  0  0
   -3.2510    5.6505    8.1145 H   0  0  0  0  0  0  0  0  0  0  0  0
   -3.3632    3.5420    6.6529 H   0  0  0  0  0  0  0  0  0  0  0  0
   -3.4266    1.9753    7.4061 H   0  0  0  0  0  0  0  0  0  0  0  0
   -1.3057    1.0353    8.6613 H   0  0  0  0  0  0  0  0  0  0  0  0
    0.1542    1.9957    8.6635 H   0  0  0  0  0  0  0  0  0  0  0  0
  1  2  1  0
  1 17  1  0
  1 18  1  0
  1 19  1  0
  2  3  1  0
  2 20  1  0
  2 21  1  0
  3  4  1  0
  4  5  2  0
  4  6  1  0
  7  6  1  6
  6 22  1  0
  7 15  1  0
  7 16  1  0
  7  8  1  0
  8  9  1  0
  8 23  1  0
  8 24  1  0
  9 14  1  0
  9 10  1  0
  9 25  1  1
 10 11  1  0
 10 26  1  0
 10 27  1  0
 11 12  1  0
 11 16  1  0
 11 28  1  1
 12 13  1  0
 12 29  1  0
 12 30  1  0
 13 14  1  0
 13 15  1  0
 13 31  1  6
 14 32  1  0
 14 33  1  0
 15 34  1  0
 15 35  1  0
 16 36  1  0
 16 37  1  0
M  END
>  <i_m_ct_stereo_status>  (238) 
1

>  <s_m_source_file>  (238) 
/var/tmp/pbs.5076255.sched01/tmpi2d1958y/88otlks1nw.sdf

>  <i_m_source_file_index>  (238) 
25

>  <i_lp_mmshare_version>  (238) 
48012

>  <i_f3d_flags>  (238) 
0

>  <s_epik_input>  (238) 
W0NIM11bQ0gyXVNDKD1PKVtOSF1DMTJbQ0gyXVtDQEBIXTNbQ0gyXVtDQEhdKFtDSDJdMilbQ0gyXVtDQEBIXShbQ0gyXTMpW0NIMl0x

>  <s_epik_cmdline>  (238) 
J2VwaWtfcHl0aG9uJywgJy1waHQnLCAnMi4wJywgJy1waCcsICc3LjAnLCAnLXRuJywgJzgnLCAnLW1hJywgJzIwMCcsICctaW1hZScsICc8aW5maWxlLm1hZT4nLCAnLW9tYWUnLCAnPG91dGZpbGUubWFlPic=

>  <r_lp_tautomer_probability>  (238) 
1

>  <r_epik_Ionization_Penalty>  (238) 
1.10308e-06

>  <r_epik_Ionization_Penalty_Charging>  (238) 
0

>  <r_epik_Ionization_Penalty_Neutral>  (238) 
1.10308e-06

>  <r_epik_State_Penalty>  (238) 
-0

>  <r_epik_Charging_Adjusted_Penalty>  (238) 
0

>  <i_epik_Tot_Q>  (238) 
0

>  <i_epik_Tot_abs_Q>  (238) 
0

>  <s_lp_Force_Field>  (238) 
OPLS3e

>  <r_lp_Energy>  (238) 
-5.97334

>  <b_lp_Chiralities_Consistent>  (238) 
1

>  <s_lp_Variant>  (238) 
70:0-1

>  <s_i_glide_gridfile>  (238) 
pfpi4k_grid

>  <i_i_glide_lignum>  (238) 
25

>  <i_i_glide_rotatable_bonds>  (238) 
4

>  <r_i_docking_score>  (238) 
-2.9793

>  <r_i_glide_ligand_efficiency>  (238) 
-0.186206

>  <r_i_glide_ligand_efficiency_sa>  (238) 
-0.46921

>  <r_i_glide_ligand_efficiency_ln>  (238) 
-0.789722

>  <r_i_glide_gscore>  (238) 
-2.9793

>  <r_i_glide_lipo>  (238) 
-0.293871

>  <r_i_glide_hbond>  (238) 
-0.16

>  <r_i_glide_metal>  (238) 
-0

>  <r_i_glide_rewards>  (238) 
-1.77697

>  <r_i_glide_evdw>  (238) 
-14.6937

>  <r_i_glide_ecoul>  (238) 
-3.87991

>  <r_i_glide_erotb>  (238) 
0.603154

>  <r_i_glide_esite>  (238) 
-0.0349393

>  <r_i_glide_emodel>  (238) 
-22.0003

>  <r_i_glide_energy>  (238) 
-18.5736

>  <r_i_glide_einternal>  (238) 
1.72923

>  <r_i_glide_intrahb_reward>  (238) 
-0

>  <i_i_glide_confnum>  (238) 
1

>  <i_i_glide_posenum>  (238) 
28

>  <r_i_glide_eff_state_penalty>  (238) 
0

>  <ligand_id>  (238) 
70

>  <original_smiles>  (238) 
CCSC(=O)NC12CC3CC(CC(C3)C1)C2

>  <smiles>  (238) 
[H]N(C(=O)SC([H])([H])C([H])([H])[H])C12C([H])([H])C3([H])C([H])([H])C([H])(C([H])([H])C([H])(C3([H])[H])C1([H])[H])C2([H])[H]

$$$$
71:0:0
     RDKit          3D

 53 58  0  0  1  0  0  0  0  0999 V2000
    1.4615    7.3330    5.6612 O   0  0  0  0  0  0  0  0  0  0  0  0
    1.7888    6.2605    5.1612 C   0  0  0  0  0  0  0  0  0  0  0  0
    2.3688    6.2105    3.7256 C   0  0  1  0  0  0  0  0  0  0  0  0
    3.7057    6.9813    3.6283 C   0  0  0  0  0  0  0  0  0  0  0  0
    3.4882    8.3725    3.7603 O   0  0  0  0  0  0  0  0  0  0  0  0
    2.4233    4.7769    3.1013 C   0  0  0  0  0  0  0  0  0  0  0  0
    1.2711    3.8744    3.6077 C   0  0  1  0  0  0  0  0  0  0  0  0
    0.0822    4.5796    3.2854 O   0  0  0  0  0  0  0  0  0  0  0  0
    1.0938    2.4366    3.0166 C   0  0  2  0  0  0  0  0  0  0  0  0
   -0.1715    1.7339    3.6400 C   0  0  0  0  0  0  0  0  0  0  0  0
   -0.6134    2.1556    5.0511 C   0  0  0  0  0  0  0  0  0  0  0  0
   -1.8076    1.8181    5.7133 C   0  0  0  0  0  0  0  0  0  0  0  0
   -2.1819    2.5124    6.8923 C   0  0  0  0  0  0  0  0  0  0  0  0
   -1.3952    3.5909    7.3894 C   0  0  0  0  0  0  0  0  0  0  0  0
   -1.8150    4.2997    8.4759 O   0  0  0  0  0  0  0  0  0  0  0  0
   -0.1938    3.9477    6.7374 C   0  0  0  0  0  0  0  0  0  0  0  0
    0.1567    3.1674    5.6591 C   0  0  0  0  0  0  0  0  0  0  0  0
    1.4459    3.6857    5.1275 C   0  0  1  0  0  0  0  0  0  0  0  0
    2.6319    2.7244    5.4296 C   0  0  0  0  0  0  0  0  0  0  0  0
    2.5635    1.3931    4.6877 C   0  0  0  0  0  0  0  0  0  0  0  0
    2.3162    1.6048    3.2407 N   0  0  1  0  0  0  0  0  0  0  0  0
    2.3472    0.3527    2.4332 C   0  0  0  0  0  0  0  0  0  0  0  0
    3.7173   -0.3024    2.3946 C   0  0  0  0  0  0  0  0  0  0  0  0
    4.6256   -0.1009    1.2106 C   0  0  0  0  0  0  0  0  0  0  0  0
    3.9893   -1.4451    1.4419 C   0  0  0  0  0  0  0  0  0  0  0  0
    1.6874    4.9641    5.9788 C   0  0  2  0  0  0  0  0  0  0  0  0
    0.6386    5.0140    6.9651 O   0  0  0  0  0  0  0  0  0  0  0  0
    1.6439    6.7651    3.1246 H   0  0  0  0  0  0  0  0  0  0  0  0
    4.4221    6.6617    4.3869 H   0  0  0  0  0  0  0  0  0  0  0  0
    4.1810    6.8220    2.6611 H   0  0  0  0  0  0  0  0  0  0  0  0
    2.8888    8.5162    4.4801 H   0  0  0  0  0  0  0  0  0  0  0  0
    2.3644    4.8716    2.0173 H   0  0  0  0  0  0  0  0  0  0  0  0
    3.3955    4.3192    3.2960 H   0  0  0  0  0  0  0  0  0  0  0  0
   -0.0123    4.5511    2.3145 H   0  0  0  0  0  0  0  0  0  0  0  0
    0.9556    2.5119    1.9403 H   0  0  0  0  0  0  0  0  0  0  0  0
   -1.0168    1.9439    2.9858 H   0  0  0  0  0  0  0  0  0  0  0  0
   -0.0932    0.6515    3.6310 H   0  0  0  0  0  0  0  0  0  0  0  0
   -2.4654    1.0774    5.2709 H   0  0  0  0  0  0  0  0  0  0  0  0
   -3.1119    2.2654    7.3728 H   0  0  0  0  0  0  0  0  0  0  0  0
   -2.5588    3.9240    8.9181 H   0  0  0  0  0  0  0  0  0  0  0  0
    3.5785    3.2001    5.1719 H   0  0  0  0  0  0  0  0  0  0  0  0
    2.7113    2.5293    6.4960 H   0  0  0  0  0  0  0  0  0  0  0  0
    3.5036    0.8841    4.8624 H   0  0  0  0  0  0  0  0  0  0  0  0
    1.8041    0.7478    5.1268 H   0  0  0  0  0  0  0  0  0  0  0  0
    1.6379   -0.3828    2.8077 H   0  0  0  0  0  0  0  0  0  0  0  0
    2.0406    0.5668    1.4102 H   0  0  0  0  0  0  0  0  0  0  0  0
    4.2046   -0.4548    3.3557 H   0  0  0  0  0  0  0  0  0  0  0  0
    4.2399    0.5165    0.4033 H   0  0  0  0  0  0  0  0  0  0  0  0
    5.6898   -0.0014    1.4174 H   0  0  0  0  0  0  0  0  0  0  0  0
    4.6475   -2.2440    1.7819 H   0  0  0  0  0  0  0  0  0  0  0  0
    3.1901   -1.7553    0.7710 H   0  0  0  0  0  0  0  0  0  0  0  0
    2.6170    4.8817    6.5424 H   0  0  0  0  0  0  0  0  0  0  0  0
    3.0908    2.1552    2.8839 H   0  0  0  0  0  0  0  0  0  0  0  0
  1  2  2  0
  2 26  1  0
  2  3  1  0
  3  4  1  0
  3  6  1  0
  3 28  1  6
  4  5  1  0
  4 29  1  0
  4 30  1  0
  5 31  1  0
  6  7  1  0
  6 32  1  0
  6 33  1  0
  7 18  1  0
  7  8  1  1
  7  9  1  0
  8 34  1  0
  9 21  1  0
  9 10  1  0
  9 35  1  6
 10 11  1  0
 10 36  1  0
 10 37  1  0
 11 17  2  0
 11 12  1  0
 12 13  2  0
 12 38  1  0
 13 14  1  0
 13 39  1  0
 14 15  1  0
 14 16  2  0
 15 40  1  0
 16 27  1  0
 16 17  1  0
 17 18  1  0
 18 19  1  6
 18 26  1  0
 19 20  1  0
 19 41  1  0
 19 42  1  0
 20 21  1  0
 20 43  1  0
 20 44  1  0
 21 22  1  0
 21 53  1  6
 22 23  1  0
 22 45  1  0
 22 46  1  0
 23 25  1  0
 23 24  1  0
 23 47  1  0
 24 25  1  0
 24 48  1  0
 24 49  1  0
 25 50  1  0
 25 51  1  0
 26 27  1  0
 26 52  1  1
M  CHG  1  21   1
M  END
>  <i_m_ct_stereo_status>  (239) 
1

>  <s_m_source_file>  (239) 
/var/tmp/pbs.5076255.sched01/tmpi2d1958y/88otlks1nw.sdf

>  <i_m_source_file_index>  (239) 
26

>  <i_lp_mmshare_version>  (239) 
48012

>  <i_f3d_flags>  (239) 
0

>  <s_epik_input>  (239) 
W09IXVtDSDJdW0NAQEhdKFtDSDJdMSlDKD1PKVtDQEhdMk9jKGMoW09IXSlbY0hdW2NIXTMpYzRjM1tDSDJdW0NAQEhdKFtDQF0xKFtDQEBdMjQ1KVtPSF0pTihbQ0gyXVtDSDJdNSlbQ0gyXVtDSF02W0NIMl1bQ0gyXTY=

>  <s_epik_cmdline>  (239) 
J2VwaWtfcHl0aG9uJywgJy1waHQnLCAnMi4wJywgJy1waCcsICc3LjAnLCAnLXRuJywgJzgnLCAnLW1hJywgJzIwMCcsICctaW1hZScsICc8aW5maWxlLm1hZT4nLCAnLW9tYWUnLCAnPG91dGZpbGUubWFlPic=

>  <r_lp_tautomer_probability>  (239) 
1

>  <r_epik_Ionization_Penalty>  (239) 
0.0682783

>  <r_epik_Ionization_Penalty_Charging>  (239) 
0.0433309

>  <r_epik_Ionization_Penalty_Neutral>  (239) 
0.0249474

>  <r_epik_State_Penalty>  (239) 
0.0557392

>  <r_epik_Charging_Adjusted_Penalty>  (239) 
0.0990701

>  <i_epik_Tot_Q>  (239) 
1

>  <i_epik_Tot_abs_Q>  (239) 
1

>  <s_lp_Force_Field>  (239) 
OPLS3e

>  <r_lp_Energy>  (239) 
68.3093

>  <b_lp_Chiralities_Consistent>  (239) 
1

>  <s_lp_Variant>  (239) 
71:0-1

>  <s_i_glide_gridfile>  (239) 
pfpi4k_grid

>  <i_i_glide_lignum>  (239) 
26

>  <i_i_glide_rotatable_bonds>  (239) 
6

>  <r_i_docking_score>  (239) 
-4.15977

>  <r_i_glide_ligand_efficiency>  (239) 
-0.154066

>  <r_i_glide_ligand_efficiency_sa>  (239) 
-0.462197

>  <r_i_glide_ligand_efficiency_ln>  (239) 
-0.968326

>  <r_i_glide_gscore>  (239) 
-4.15977

>  <r_i_glide_lipo>  (239) 
-0.312281

>  <r_i_glide_hbond>  (239) 
-0.16

>  <r_i_glide_metal>  (239) 
-0

>  <r_i_glide_rewards>  (239) 
-1.36976

>  <r_i_glide_evdw>  (239) 
-19.8388

>  <r_i_glide_ecoul>  (239) 
-11.5011

>  <r_i_glide_erotb>  (239) 
0.417729

>  <r_i_glide_esite>  (239) 
-0.0183469

>  <r_i_glide_emodel>  (239) 
-47.5892

>  <r_i_glide_energy>  (239) 
-31.3399

>  <r_i_glide_einternal>  (239) 
0.730179

>  <r_i_glide_intrahb_reward>  (239) 
-0.5

>  <i_i_glide_confnum>  (239) 
4

>  <i_i_glide_posenum>  (239) 
31

>  <r_i_glide_eff_state_penalty>  (239) 
0

>  <ligand_id>  (239) 
71

>  <original_smiles>  (239) 
O=C1C(CO)CC2(O)C3Cc4ccc(O)c5c4C2(CCN3CC2CC2)C1O5

>  <smiles>  (239) 
[H]Oc1c([H])c([H])c2c3c1OC1([H])C(=O)C([H])(C([H])([H])O[H])C([H])([H])C4(O[H])C31C([H])([H])C([H])([H])[N+]([H])(C([H])([H])C1([H])C([H])([H])C1([H])[H])C4([H])C2([H])[H]

$$$$
71:0:1
     RDKit          3D

 53 58  0  0  1  0  0  0  0  0999 V2000
    2.0935    7.0275    6.1771 O   0  0  0  0  0  0  0  0  0  0  0  0
    2.3196    5.9932    5.5489 C   0  0  0  0  0  0  0  0  0  0  0  0
    3.0585    6.0514    4.1878 C   0  0  1  0  0  0  0  0  0  0  0  0
    4.5043    6.5791    4.3447 C   0  0  0  0  0  0  0  0  0  0  0  0
    4.5246    7.9181    4.7996 O   0  0  0  0  0  0  0  0  0  0  0  0
    2.9689    4.7294    3.3498 C   0  0  0  0  0  0  0  0  0  0  0  0
    1.6464    3.9682    3.5928 C   0  0  1  0  0  0  0  0  0  0  0  0
    0.6345    4.9139    3.2750 O   0  0  0  0  0  0  0  0  0  0  0  0
    1.3295    2.6722    2.7741 C   0  0  2  0  0  0  0  0  0  0  0  0
   -0.1020    2.1261    3.1397 C   0  0  0  0  0  0  0  0  0  0  0  0
   -0.6493    2.4256    4.5508 C   0  0  0  0  0  0  0  0  0  0  0  0
   -1.9590    2.2184    5.0214 C   0  0  0  0  0  0  0  0  0  0  0  0
   -2.3635    2.7923    6.2586 C   0  0  0  0  0  0  0  0  0  0  0  0
   -1.4944    3.6316    6.9937 C   0  0  0  0  0  0  0  0  0  0  0  0
   -1.9260    4.2444    8.1333 O   0  0  0  0  0  0  0  0  0  0  0  0
   -0.1748    3.8621    6.5352 C   0  0  0  0  0  0  0  0  0  0  0  0
    0.1834    3.1861    5.3831 C   0  0  0  0  0  0  0  0  0  0  0  0
    1.5959    3.5453    5.0768 C   0  0  1  0  0  0  0  0  0  0  0  0
    2.5690    2.3624    5.3464 C   0  0  0  0  0  0  0  0  0  0  0  0
    2.3883    1.1738    4.4044 C   0  0  0  0  0  0  0  0  0  0  0  0
    2.3679    1.6227    2.9882 N   0  0  1  0  0  0  0  0  0  0  0  0
    2.2969    0.5057    2.0008 C   0  0  0  0  0  0  0  0  0  0  0  0
    3.5492   -0.3572    1.9925 C   0  0  0  0  0  0  0  0  0  0  0  0
    4.5636   -0.2242    0.8826 C   0  0  0  0  0  0  0  0  0  0  0  0
    3.7068   -1.4568    0.9633 C   0  0  0  0  0  0  0  0  0  0  0  0
    1.9197    4.6352    6.1380 C   0  0  2  0  0  0  0  0  0  0  0  0
    0.7743    4.7218    7.0103 O   0  0  0  0  0  0  0  0  0  0  0  0
    2.5142    6.8002    3.6076 H   0  0  0  0  0  0  0  0  0  0  0  0
    5.0908    5.9678    5.0319 H   0  0  0  0  0  0  0  0  0  0  0  0
    5.0184    6.5693    3.3843 H   0  0  0  0  0  0  0  0  0  0  0  0
    3.9987    7.9783    5.5865 H   0  0  0  0  0  0  0  0  0  0  0  0
    3.0652    4.9755    2.2917 H   0  0  0  0  0  0  0  0  0  0  0  0
    3.8153    4.0851    3.5748 H   0  0  0  0  0  0  0  0  0  0  0  0
    0.4747    4.8924    2.3190 H   0  0  0  0  0  0  0  0  0  0  0  0
    1.3861    2.9097    1.7150 H   0  0  0  0  0  0  0  0  0  0  0  0
   -0.8141    2.5726    2.4480 H   0  0  0  0  0  0  0  0  0  0  0  0
   -0.1980    1.0552    2.9720 H   0  0  0  0  0  0  0  0  0  0  0  0
   -2.6458    1.6656    4.3999 H   0  0  0  0  0  0  0  0  0  0  0  0
   -3.3745    2.6351    6.5997 H   0  0  0  0  0  0  0  0  0  0  0  0
   -2.7847    3.9696    8.4147 H   0  0  0  0  0  0  0  0  0  0  0  0
    3.6010    2.7083    5.2589 H   0  0  0  0  0  0  0  0  0  0  0  0
    2.4766    2.0139    6.3741 H   0  0  0  0  0  0  0  0  0  0  0  0
    3.2129    0.4958    4.5924 H   0  0  0  0  0  0  0  0  0  0  0  0
    1.4826    0.6223    4.6537 H   0  0  0  0  0  0  0  0  0  0  0  0
    1.4456   -0.1435    2.1895 H   0  0  0  0  0  0  0  0  0  0  0  0
    2.1476    0.9074    0.9995 H   0  0  0  0  0  0  0  0  0  0  0  0
    3.9365   -0.6538    2.9674 H   0  0  0  0  0  0  0  0  0  0  0  0
    4.3400    0.4971    0.1005 H   0  0  0  0  0  0  0  0  0  0  0  0
    5.6119   -0.3098    1.1686 H   0  0  0  0  0  0  0  0  0  0  0  0
    4.1970   -2.3759    1.2837 H   0  0  0  0  0  0  0  0  0  0  0  0
    2.9200   -1.5823    0.2216 H   0  0  0  0  0  0  0  0  0  0  0  0
    2.7522    4.3174    6.7672 H   0  0  0  0  0  0  0  0  0  0  0  0
    3.2500    2.0864    2.7991 H   0  0  0  0  0  0  0  0  0  0  0  0
  1  2  2  0
  2 26  1  0
  2  3  1  0
  3  4  1  0
  3  6  1  0
  3 28  1  6
  4  5  1  0
  4 29  1  0
  4 30  1  0
  5 31  1  0
  6  7  1  0
  6 32  1  0
  6 33  1  0
  7 18  1  0
  7  8  1  1
  7  9  1  0
  8 34  1  0
  9 21  1  0
  9 10  1  0
  9 35  1  6
 10 11  1  0
 10 36  1  0
 10 37  1  0
 11 17  2  0
 11 12  1  0
 12 13  2  0
 12 38  1  0
 13 14  1  0
 13 39  1  0
 14 15  1  0
 14 16  2  0
 15 40  1  0
 16 27  1  0
 16 17  1  0
 17 18  1  0
 18 19  1  6
 18 26  1  0
 19 20  1  0
 19 41  1  0
 19 42  1  0
 20 21  1  0
 20 43  1  0
 20 44  1  0
 21 22  1  0
 21 53  1  6
 22 23  1  0
 22 45  1  0
 22 46  1  0
 23 25  1  0
 23 24  1  0
 23 47  1  0
 24 25  1  0
 24 48  1  0
 24 49  1  0
 25 50  1  0
 25 51  1  0
 26 27  1  0
 26 52  1  1
M  CHG  1  21   1
M  END
>  <i_m_ct_stereo_status>  (240) 
1

>  <s_m_source_file>  (240) 
/var/tmp/pbs.5076255.sched01/tmpi2d1958y/88otlks1nw.sdf

>  <i_m_source_file_index>  (240) 
26

>  <i_lp_mmshare_version>  (240) 
48012

>  <i_f3d_flags>  (240) 
0

>  <s_epik_input>  (240) 
W09IXVtDSDJdW0NAQEhdKFtDSDJdMSlDKD1PKVtDQEhdMk9jKGMoW09IXSlbY0hdW2NIXTMpYzRjM1tDSDJdW0NAQEhdKFtDQF0xKFtDQEBdMjQ1KVtPSF0pTihbQ0gyXVtDSDJdNSlbQ0gyXVtDSF02W0NIMl1bQ0gyXTY=

>  <s_epik_cmdline>  (240) 
J2VwaWtfcHl0aG9uJywgJy1waHQnLCAnMi4wJywgJy1waCcsICc3LjAnLCAnLXRuJywgJzgnLCAnLW1hJywgJzIwMCcsICctaW1hZScsICc8aW5maWxlLm1hZT4nLCAnLW9tYWUnLCAnPG91dGZpbGUubWFlPic=

>  <r_lp_tautomer_probability>  (240) 
1

>  <r_epik_Ionization_Penalty>  (240) 
0.0682783

>  <r_epik_Ionization_Penalty_Charging>  (240) 
0.0433309

>  <r_epik_Ionization_Penalty_Neutral>  (240) 
0.0249474

>  <r_epik_State_Penalty>  (240) 
0.0557392

>  <r_epik_Charging_Adjusted_Penalty>  (240) 
0.0990701

>  <i_epik_Tot_Q>  (240) 
1

>  <i_epik_Tot_abs_Q>  (240) 
1

>  <s_lp_Force_Field>  (240) 
OPLS3e

>  <r_lp_Energy>  (240) 
68.3093

>  <b_lp_Chiralities_Consistent>  (240) 
1

>  <s_lp_Variant>  (240) 
71:0-1

>  <s_i_glide_gridfile>  (240) 
pfpi4k_grid

>  <i_i_glide_lignum>  (240) 
26

>  <i_i_glide_rotatable_bonds>  (240) 
6

>  <r_i_docking_score>  (240) 
-4.01099

>  <r_i_glide_ligand_efficiency>  (240) 
-0.148555

>  <r_i_glide_ligand_efficiency_sa>  (240) 
-0.445666

>  <r_i_glide_ligand_efficiency_ln>  (240) 
-0.933693

>  <r_i_glide_gscore>  (240) 
-4.01099

>  <r_i_glide_lipo>  (240) 
-0.413666

>  <r_i_glide_hbond>  (240) 
-0.16

>  <r_i_glide_metal>  (240) 
-0

>  <r_i_glide_rewards>  (240) 
-1.36976

>  <r_i_glide_evdw>  (240) 
-19.6417

>  <r_i_glide_ecoul>  (240) 
-10.0126

>  <r_i_glide_erotb>  (240) 
0.417729

>  <r_i_glide_esite>  (240) 
-0.00131241

>  <r_i_glide_emodel>  (240) 
-45.1637

>  <r_i_glide_energy>  (240) 
-29.6543

>  <r_i_glide_einternal>  (240) 
0.961386

>  <r_i_glide_intrahb_reward>  (240) 
-0.5

>  <i_i_glide_confnum>  (240) 
4

>  <i_i_glide_posenum>  (240) 
27

>  <r_i_glide_eff_state_penalty>  (240) 
0

>  <ligand_id>  (240) 
71

>  <original_smiles>  (240) 
O=C1C(CO)CC2(O)C3Cc4ccc(O)c5c4C2(CCN3CC2CC2)C1O5

>  <smiles>  (240) 
[H]Oc1c([H])c([H])c2c3c1OC1([H])C(=O)C([H])(C([H])([H])O[H])C([H])([H])C4(O[H])C31C([H])([H])C([H])([H])[N+]([H])(C([H])([H])C1([H])C([H])([H])C1([H])[H])C4([H])C2([H])[H]

$$$$
71:0:2
     RDKit          3D

 53 58  0  0  1  0  0  0  0  0999 V2000
    1.1293    7.0077    5.8730 O   0  0  0  0  0  0  0  0  0  0  0  0
    1.5549    6.0163    5.2904 C   0  0  0  0  0  0  0  0  0  0  0  0
    2.1290    6.1209    3.8521 C   0  0  1  0  0  0  0  0  0  0  0  0
    3.4110    6.9817    3.7998 C   0  0  0  0  0  0  0  0  0  0  0  0
    3.1002    8.3552    3.9411 O   0  0  0  0  0  0  0  0  0  0  0  0
    2.2658    4.7501    3.1069 C   0  0  0  0  0  0  0  0  0  0  0  0
    1.1732    3.7415    3.5376 C   0  0  1  0  0  0  0  0  0  0  0  0
   -0.0546    4.4103    3.2847 O   0  0  0  0  0  0  0  0  0  0  0  0
    1.0813    2.3438    2.8291 C   0  0  2  0  0  0  0  0  0  0  0  0
   -0.1393    1.5196    3.3968 C   0  0  0  0  0  0  0  0  0  0  0  0
   -0.5981    1.7949    4.8383 C   0  0  0  0  0  0  0  0  0  0  0  0
   -1.7666    1.3294    5.4743 C   0  0  0  0  0  0  0  0  0  0  0  0
   -2.1663    1.9002    6.7100 C   0  0  0  0  0  0  0  0  0  0  0  0
   -1.4403    2.9802    7.2912 C   0  0  0  0  0  0  0  0  0  0  0  0
   -1.9023    3.5846    8.4215 O   0  0  0  0  0  0  0  0  0  0  0  0
   -0.2643    3.4533    6.6717 C   0  0  0  0  0  0  0  0  0  0  0  0
    0.1207    2.7940    5.5285 C   0  0  0  0  0  0  0  0  0  0  0  0
    1.3693    3.4380    5.0356 C   0  0  1  0  0  0  0  0  0  0  0  0
    2.6124    2.5327    5.2577 C   0  0  0  0  0  0  0  0  0  0  0  0
    2.6164    1.2646    4.4151 C   0  0  0  0  0  0  0  0  0  0  0  0
    2.3560    1.5717    2.9862 N   0  0  1  0  0  0  0  0  0  0  0  0
    2.4631    0.3935    2.0731 C   0  0  0  0  0  0  0  0  0  0  0  0
    3.8262   -0.2919    2.1000 C   0  0  0  0  0  0  0  0  0  0  0  0
    4.7608   -0.1920    0.9239 C   0  0  0  0  0  0  0  0  0  0  0  0
    4.0890   -1.5023    1.2314 C   0  0  0  0  0  0  0  0  0  0  0  0
    1.5438    4.6503    5.9948 C   0  0  2  0  0  0  0  0  0  0  0  0
    0.5018    4.5478    6.9848 O   0  0  0  0  0  0  0  0  0  0  0  0
    1.3656    6.6702    3.2962 H   0  0  0  0  0  0  0  0  0  0  0  0
    4.1268    6.6988    4.5727 H   0  0  0  0  0  0  0  0  0  0  0  0
    3.9209    6.8615    2.8454 H   0  0  0  0  0  0  0  0  0  0  0  0
    2.3461    8.5566    3.4049 H   0  0  0  0  0  0  0  0  0  0  0  0
    2.1946    4.9301    2.0341 H   0  0  0  0  0  0  0  0  0  0  0  0
    3.2662    4.3361    3.2576 H   0  0  0  0  0  0  0  0  0  0  0  0
   -0.1305    4.5218    2.3171 H   0  0  0  0  0  0  0  0  0  0  0  0
    0.9330    2.4950    1.7610 H   0  0  0  0  0  0  0  0  0  0  0  0
   -1.0014    1.7295    2.7637 H   0  0  0  0  0  0  0  0  0  0  0  0
    0.0013    0.4461    3.3052 H   0  0  0  0  0  0  0  0  0  0  0  0
   -2.3825    0.5854    4.9787 H   0  0  0  0  0  0  0  0  0  0  0  0
   -3.0720    1.5609    7.1748 H   0  0  0  0  0  0  0  0  0  0  0  0
   -2.7496    3.2874    8.7050 H   0  0  0  0  0  0  0  0  0  0  0  0
    3.5273    3.0822    5.0314 H   0  0  0  0  0  0  0  0  0  0  0  0
    2.7146    2.2541    6.3031 H   0  0  0  0  0  0  0  0  0  0  0  0
    3.5949    0.8263    4.5768 H   0  0  0  0  0  0  0  0  0  0  0  0
    1.8996    0.5359    4.7957 H   0  0  0  0  0  0  0  0  0  0  0  0
    1.7130   -0.3615    2.3017 H   0  0  0  0  0  0  0  0  0  0  0  0
    2.2487    0.7099    1.0527 H   0  0  0  0  0  0  0  0  0  0  0  0
    4.3004   -0.4098    3.0746 H   0  0  0  0  0  0  0  0  0  0  0  0
    4.4044    0.3706    0.0692 H   0  0  0  0  0  0  0  0  0  0  0  0
    5.8171   -0.0870    1.1628 H   0  0  0  0  0  0  0  0  0  0  0  0
    4.7135   -2.2859    1.6589 H   0  0  0  0  0  0  0  0  0  0  0  0
    3.2920   -1.8432    0.5731 H   0  0  0  0  0  0  0  0  0  0  0  0
    2.4832    4.5779    6.5425 H   0  0  0  0  0  0  0  0  0  0  0  0
    3.0959    2.1984    2.6773 H   0  0  0  0  0  0  0  0  0  0  0  0
  1  2  2  0
  2 26  1  0
  2  3  1  0
  3  4  1  0
  3  6  1  0
  3 28  1  6
  4  5  1  0
  4 29  1  0
  4 30  1  0
  5 31  1  0
  6  7  1  0
  6 32  1  0
  6 33  1  0
  7 18  1  0
  7  8  1  1
  7  9  1  0
  8 34  1  0
  9 21  1  0
  9 10  1  0
  9 35  1  6
 10 11  1  0
 10 36  1  0
 10 37  1  0
 11 17  2  0
 11 12  1  0
 12 13  2  0
 12 38  1  0
 13 14  1  0
 13 39  1  0
 14 15  1  0
 14 16  2  0
 15 40  1  0
 16 27  1  0
 16 17  1  0
 17 18  1  0
 18 19  1  6
 18 26  1  0
 19 20  1  0
 19 41  1  0
 19 42  1  0
 20 21  1  0
 20 43  1  0
 20 44  1  0
 21 22  1  0
 21 53  1  6
 22 23  1  0
 22 45  1  0
 22 46  1  0
 23 25  1  0
 23 24  1  0
 23 47  1  0
 24 25  1  0
 24 48  1  0
 24 49  1  0
 25 50  1  0
 25 51  1  0
 26 27  1  0
 26 52  1  1
M  CHG  1  21   1
M  END
>  <i_m_ct_stereo_status>  (241) 
1

>  <s_m_source_file>  (241) 
/var/tmp/pbs.5076255.sched01/tmpi2d1958y/88otlks1nw.sdf

>  <i_m_source_file_index>  (241) 
26

>  <i_lp_mmshare_version>  (241) 
48012

>  <i_f3d_flags>  (241) 
0

>  <s_epik_input>  (241) 
W09IXVtDSDJdW0NAQEhdKFtDSDJdMSlDKD1PKVtDQEhdMk9jKGMoW09IXSlbY0hdW2NIXTMpYzRjM1tDSDJdW0NAQEhdKFtDQF0xKFtDQEBdMjQ1KVtPSF0pTihbQ0gyXVtDSDJdNSlbQ0gyXVtDSF02W0NIMl1bQ0gyXTY=

>  <s_epik_cmdline>  (241) 
J2VwaWtfcHl0aG9uJywgJy1waHQnLCAnMi4wJywgJy1waCcsICc3LjAnLCAnLXRuJywgJzgnLCAnLW1hJywgJzIwMCcsICctaW1hZScsICc8aW5maWxlLm1hZT4nLCAnLW9tYWUnLCAnPG91dGZpbGUubWFlPic=

>  <r_lp_tautomer_probability>  (241) 
1

>  <r_epik_Ionization_Penalty>  (241) 
0.0682783

>  <r_epik_Ionization_Penalty_Charging>  (241) 
0.0433309

>  <r_epik_Ionization_Penalty_Neutral>  (241) 
0.0249474

>  <r_epik_State_Penalty>  (241) 
0.0557392

>  <r_epik_Charging_Adjusted_Penalty>  (241) 
0.0990701

>  <i_epik_Tot_Q>  (241) 
1

>  <i_epik_Tot_abs_Q>  (241) 
1

>  <s_lp_Force_Field>  (241) 
OPLS3e

>  <r_lp_Energy>  (241) 
68.3093

>  <b_lp_Chiralities_Consistent>  (241) 
1

>  <s_lp_Variant>  (241) 
71:0-1

>  <s_i_glide_gridfile>  (241) 
pfpi4k_grid

>  <i_i_glide_lignum>  (241) 
26

>  <i_i_glide_rotatable_bonds>  (241) 
6

>  <r_i_docking_score>  (241) 
-3.70998

>  <r_i_glide_ligand_efficiency>  (241) 
-0.137407

>  <r_i_glide_ligand_efficiency_sa>  (241) 
-0.41222

>  <r_i_glide_ligand_efficiency_ln>  (241) 
-0.863622

>  <r_i_glide_gscore>  (241) 
-3.70998

>  <r_i_glide_lipo>  (241) 
-0.225577

>  <r_i_glide_hbond>  (241) 
-0.16

>  <r_i_glide_metal>  (241) 
-0

>  <r_i_glide_rewards>  (241) 
-0.869762

>  <r_i_glide_evdw>  (241) 
-20.1455

>  <r_i_glide_ecoul>  (241) 
-12.369

>  <r_i_glide_erotb>  (241) 
0.417729

>  <r_i_glide_esite>  (241) 
-0.00973986

>  <r_i_glide_emodel>  (241) 
-42.0715

>  <r_i_glide_energy>  (241) 
-32.5145

>  <r_i_glide_einternal>  (241) 
1.202

>  <r_i_glide_intrahb_reward>  (241) 
-0

>  <i_i_glide_confnum>  (241) 
4

>  <i_i_glide_posenum>  (241) 
1

>  <r_i_glide_eff_state_penalty>  (241) 
0

>  <ligand_id>  (241) 
71

>  <original_smiles>  (241) 
O=C1C(CO)CC2(O)C3Cc4ccc(O)c5c4C2(CCN3CC2CC2)C1O5

>  <smiles>  (241) 
[H]Oc1c([H])c([H])c2c3c1OC1([H])C(=O)C([H])(C([H])([H])O[H])C([H])([H])C4(O[H])C31C([H])([H])C([H])([H])[N+]([H])(C([H])([H])C1([H])C([H])([H])C1([H])[H])C4([H])C2([H])[H]

$$$$
71:1:0
     RDKit          3D

 52 57  0  0  1  0  0  0  0  0999 V2000
    3.8403   -9.2318    1.2149 O   0  0  0  0  0  0  0  0  0  0  0  0
    3.8451   -8.1361    1.7676 C   0  0  0  0  0  0  0  0  0  0  0  0
    5.0674   -7.7031    2.6204 C   0  0  1  0  0  0  0  0  0  0  0  0
    6.3310   -7.5465    1.7482 C   0  0  0  0  0  0  0  0  0  0  0  0
    6.7670   -8.8149    1.2891 O   0  0  0  0  0  0  0  0  0  0  0  0
    4.8027   -6.4778    3.5532 C   0  0  0  0  0  0  0  0  0  0  0  0
    3.3350   -6.4259    4.0386 C   0  0  1  0  0  0  0  0  0  0  0  0
    3.1445   -7.6620    4.7281 O   0  0  0  0  0  0  0  0  0  0  0  0
    2.8979   -5.3130    5.0392 C   0  0  2  0  0  0  0  0  0  0  0  0
    1.3840   -5.4689    5.4382 C   0  0  0  0  0  0  0  0  0  0  0  0
    0.4477   -6.1800    4.4486 C   0  0  0  0  0  0  0  0  0  0  0  0
   -0.8617   -6.6493    4.6706 C   0  0  0  0  0  0  0  0  0  0  0  0
   -1.4924   -7.4761    3.7039 C   0  0  0  0  0  0  0  0  0  0  0  0
   -0.7923   -7.9121    2.5517 C   0  0  0  0  0  0  0  0  0  0  0  0
   -1.3861   -8.7658    1.6775 O   0  0  0  0  0  0  0  0  0  0  0  0
    0.5286   -7.4681    2.3148 C   0  0  0  0  0  0  0  0  0  0  0  0
    1.0382   -6.5791    3.2389 C   0  0  0  0  0  0  0  0  0  0  0  0
    2.4230   -6.2361    2.8082 C   0  0  1  0  0  0  0  0  0  0  0  0
    2.5278   -4.7875    2.2541 C   0  0  0  0  0  0  0  0  0  0  0  0
    2.3866   -3.7043    3.3200 C   0  0  0  0  0  0  0  0  0  0  0  0
    3.2068   -3.9777    4.4992 N   0  0  0  0  0  0  0  0  0  0  0  0
    3.1554   -2.9139    5.5018 C   0  0  0  0  0  0  0  0  0  0  0  0
    3.7278   -1.5910    5.0301 C   0  0  0  0  0  0  0  0  0  0  0  0
    5.1799   -1.2678    5.2888 C   0  0  0  0  0  0  0  0  0  0  0  0
    4.0961   -0.5136    6.0200 C   0  0  0  0  0  0  0  0  0  0  0  0
    2.6607   -7.1749    1.5932 C   0  0  2  0  0  0  0  0  0  0  0  0
    1.4106   -7.8521    1.3421 O   0  0  0  0  0  0  0  0  0  0  0  0
    5.2641   -8.5405    3.2928 H   0  0  0  0  0  0  0  0  0  0  0  0
    6.1470   -6.8946    0.8928 H   0  0  0  0  0  0  0  0  0  0  0  0
    7.1468   -7.1028    2.3203 H   0  0  0  0  0  0  0  0  0  0  0  0
    6.0224   -9.2830    0.9344 H   0  0  0  0  0  0  0  0  0  0  0  0
    5.4702   -6.5384    4.4140 H   0  0  0  0  0  0  0  0  0  0  0  0
    5.0728   -5.5534    3.0441 H   0  0  0  0  0  0  0  0  0  0  0  0
    3.2909   -8.3782    4.1305 H   0  0  0  0  0  0  0  0  0  0  0  0
    3.4880   -5.4478    5.9468 H   0  0  0  0  0  0  0  0  0  0  0  0
    1.3447   -6.0681    6.3444 H   0  0  0  0  0  0  0  0  0  0  0  0
    0.9291   -4.5168    5.7101 H   0  0  0  0  0  0  0  0  0  0  0  0
   -1.3781   -6.3913    5.5836 H   0  0  0  0  0  0  0  0  0  0  0  0
   -2.4948   -7.8286    3.8711 H   0  0  0  0  0  0  0  0  0  0  0  0
   -0.7854   -9.1245    1.0259 H   0  0  0  0  0  0  0  0  0  0  0  0
    3.5071   -4.6530    1.7906 H   0  0  0  0  0  0  0  0  0  0  0  0
    1.8113   -4.6136    1.4539 H   0  0  0  0  0  0  0  0  0  0  0  0
    2.6879   -2.7707    2.8488 H   0  0  0  0  0  0  0  0  0  0  0  0
    1.3397   -3.5900    3.5986 H   0  0  0  0  0  0  0  0  0  0  0  0
    2.1327   -2.7414    5.8348 H   0  0  0  0  0  0  0  0  0  0  0  0
    3.7122   -3.2210    6.3904 H   0  0  0  0  0  0  0  0  0  0  0  0
    3.2960   -1.2017    4.1073 H   0  0  0  0  0  0  0  0  0  0  0  0
    5.7574   -2.0103    5.8408 H   0  0  0  0  0  0  0  0  0  0  0  0
    5.7123   -0.7526    4.4930 H   0  0  0  0  0  0  0  0  0  0  0  0
    3.9055    0.5119    5.7116 H   0  0  0  0  0  0  0  0  0  0  0  0
    3.9278   -0.7317    7.0743 H   0  0  0  0  0  0  0  0  0  0  0  0
    2.8775   -6.5950    0.6943 H   0  0  0  0  0  0  0  0  0  0  0  0
  1  2  2  0
  2 26  1  0
  2  3  1  0
  3  4  1  0
  3  6  1  0
  3 28  1  1
  4  5  1  0
  4 29  1  0
  4 30  1  0
  5 31  1  0
  6  7  1  0
  6 32  1  0
  6 33  1  0
  7 18  1  0
  7  8  1  1
  7  9  1  0
  8 34  1  0
  9 21  1  0
  9 10  1  0
  9 35  1  1
 10 11  1  0
 10 36  1  0
 10 37  1  0
 11 17  2  0
 11 12  1  0
 12 13  2  0
 12 38  1  0
 13 14  1  0
 13 39  1  0
 14 15  1  0
 14 16  2  0
 15 40  1  0
 16 27  1  0
 16 17  1  0
 17 18  1  0
 18 19  1  6
 18 26  1  0
 19 20  1  0
 19 41  1  0
 19 42  1  0
 20 21  1  0
 20 43  1  0
 20 44  1  0
 21 22  1  0
 22 23  1  0
 22 45  1  0
 22 46  1  0
 23 25  1  0
 23 24  1  0
 23 47  1  0
 24 25  1  0
 24 48  1  0
 24 49  1  0
 25 50  1  0
 25 51  1  0
 26 27  1  0
 26 52  1  6
M  END
>  <i_m_ct_stereo_status>  (242) 
1

>  <s_m_source_file>  (242) 
/var/tmp/pbs.5076255.sched01/tmpi2d1958y/88otlks1nw.sdf

>  <i_m_source_file_index>  (242) 
27

>  <i_lp_mmshare_version>  (242) 
48012

>  <i_f3d_flags>  (242) 
0

>  <s_epik_input>  (242) 
W09IXVtDSDJdW0NAQEhdKFtDSDJdMSlDKD1PKVtDQEhdMk9jKGMoW09IXSlbY0hdW2NIXTMpYzRjM1tDSDJdW0NAQEhdKFtDQF0xKFtDQEBdMjQ1KVtPSF0pTihbQ0gyXVtDSDJdNSlbQ0gyXVtDSF02W0NIMl1bQ0gyXTY=

>  <s_epik_cmdline>  (242) 
J2VwaWtfcHl0aG9uJywgJy1waHQnLCAnMi4wJywgJy1waCcsICc3LjAnLCAnLXRuJywgJzgnLCAnLW1hJywgJzIwMCcsICctaW1hZScsICc8aW5maWxlLm1hZT4nLCAnLW9tYWUnLCAnPG91dGZpbGUubWFlPic=

>  <r_lp_tautomer_probability>  (242) 
1

>  <r_epik_Ionization_Penalty>  (242) 
1.5726

>  <r_epik_Ionization_Penalty_Charging>  (242) 
0

>  <r_epik_Ionization_Penalty_Neutral>  (242) 
1.5726

>  <r_epik_State_Penalty>  (242) 
1.68605

>  <r_epik_Charging_Adjusted_Penalty>  (242) 
1.68605

>  <i_epik_Tot_Q>  (242) 
0

>  <i_epik_Tot_abs_Q>  (242) 
0

>  <s_lp_Force_Field>  (242) 
OPLS3e

>  <r_lp_Energy>  (242) 
69.6172

>  <b_lp_Chiralities_Consistent>  (242) 
1

>  <s_lp_Variant>  (242) 
71:0-2

>  <s_i_glide_gridfile>  (242) 
pfpi4k_grid

>  <i_i_glide_lignum>  (242) 
27

>  <i_i_glide_rotatable_bonds>  (242) 
6

>  <r_i_docking_score>  (242) 
-2.81494

>  <r_i_glide_ligand_efficiency>  (242) 
-0.104257

>  <r_i_glide_ligand_efficiency_sa>  (242) 
-0.312772

>  <r_i_glide_ligand_efficiency_ln>  (242) 
-0.655273

>  <r_i_glide_gscore>  (242) 
-2.81494

>  <r_i_glide_lipo>  (242) 
-0.118206

>  <r_i_glide_hbond>  (242) 
0

>  <r_i_glide_metal>  (242) 
-0

>  <r_i_glide_rewards>  (242) 
-1.37663

>  <r_i_glide_evdw>  (242) 
-19.6407

>  <r_i_glide_ecoul>  (242) 
-5.00428

>  <r_i_glide_erotb>  (242) 
0.419759

>  <r_i_glide_esite>  (242) 
-0.00718737

>  <r_i_glide_emodel>  (242) 
-34.7437

>  <r_i_glide_energy>  (242) 
-24.6449

>  <r_i_glide_einternal>  (242) 
0.479828

>  <r_i_glide_intrahb_reward>  (242) 
-0.5

>  <i_i_glide_confnum>  (242) 
4

>  <i_i_glide_posenum>  (242) 
18

>  <r_i_glide_eff_state_penalty>  (242) 
0

>  <ligand_id>  (242) 
71

>  <original_smiles>  (242) 
O=C1C(CO)CC2(O)C3Cc4ccc(O)c5c4C2(CCN3CC2CC2)C1O5

>  <smiles>  (242) 
[H]Oc1c([H])c([H])c2c3c1OC1([H])C(=O)C([H])(C([H])([H])O[H])C([H])([H])C4(O[H])C([H])(N(C([H])([H])C5([H])C([H])([H])C5([H])[H])C([H])([H])C([H])([H])C314)C2([H])[H]

$$$$
71:1:1
     RDKit          3D

 52 57  0  0  1  0  0  0  0  0999 V2000
    4.1033   -9.1468    1.4469 O   0  0  0  0  0  0  0  0  0  0  0  0
    4.0667   -7.9796    1.8131 C   0  0  0  0  0  0  0  0  0  0  0  0
    5.2903   -7.3495    2.5280 C   0  0  1  0  0  0  0  0  0  0  0  0
    6.5059   -7.2641    1.5812 C   0  0  0  0  0  0  0  0  0  0  0  0
    6.9941   -8.5616    1.2862 O   0  0  0  0  0  0  0  0  0  0  0  0
    4.9866   -6.0083    3.2698 C   0  0  0  0  0  0  0  0  0  0  0  0
    3.5401   -5.9551    3.8110 C   0  0  1  0  0  0  0  0  0  0  0  0
    3.4489   -7.0744    4.6938 O   0  0  0  0  0  0  0  0  0  0  0  0
    3.0786   -4.7209    4.6428 C   0  0  2  0  0  0  0  0  0  0  0  0
    1.5906   -4.8900    5.1333 C   0  0  0  0  0  0  0  0  0  0  0  0
    0.6655   -5.7987    4.3140 C   0  0  0  0  0  0  0  0  0  0  0  0
   -0.6004   -6.3010    4.6768 C   0  0  0  0  0  0  0  0  0  0  0  0
   -1.2157   -7.3034    3.8833 C   0  0  0  0  0  0  0  0  0  0  0  0
   -0.5420   -7.8755    2.7770 C   0  0  0  0  0  0  0  0  0  0  0  0
   -1.1260   -8.8910    2.0787 O   0  0  0  0  0  0  0  0  0  0  0  0
    0.7355   -7.4069    2.4104 C   0  0  0  0  0  0  0  0  0  0  0  0
    1.2291   -6.3558    3.1516 C   0  0  0  0  0  0  0  0  0  0  0  0
    2.5747   -6.0145    2.6092 C   0  0  1  0  0  0  0  0  0  0  0  0
    2.5691   -4.6674    1.8306 C   0  0  0  0  0  0  0  0  0  0  0  0
    2.4025   -3.4363    2.7196 C   0  0  0  0  0  0  0  0  0  0  0  0
    3.2842   -3.4765    3.8862 N   0  0  0  0  0  0  0  0  0  0  0  0
    3.2064   -2.2709    4.7109 C   0  0  0  0  0  0  0  0  0  0  0  0
    3.7343   -1.0209    4.0281 C   0  0  0  0  0  0  0  0  0  0  0  0
    5.1494   -0.5632    4.2948 C   0  0  0  0  0  0  0  0  0  0  0  0
    3.9855    0.2395    4.8200 C   0  0  0  0  0  0  0  0  0  0  0  0
    2.8205   -7.1215    1.5485 C   0  0  2  0  0  0  0  0  0  0  0  0
    1.6063   -7.8994    1.4721 O   0  0  0  0  0  0  0  0  0  0  0  0
    5.5650   -8.0585    3.3136 H   0  0  0  0  0  0  0  0  0  0  0  0
    6.2512   -6.7427    0.6566 H   0  0  0  0  0  0  0  0  0  0  0  0
    7.3209   -6.7081    2.0448 H   0  0  0  0  0  0  0  0  0  0  0  0
    6.2653   -9.1124    1.0313 H   0  0  0  0  0  0  0  0  0  0  0  0
    5.6903   -5.8941    4.0959 H   0  0  0  0  0  0  0  0  0  0  0  0
    5.1815   -5.1619    2.6080 H   0  0  0  0  0  0  0  0  0  0  0  0
    3.6069   -7.8683    4.2066 H   0  0  0  0  0  0  0  0  0  0  0  0
    3.7063   -4.6813    5.5311 H   0  0  0  0  0  0  0  0  0  0  0  0
    1.6231   -5.3392    6.1210 H   0  0  0  0  0  0  0  0  0  0  0  0
    1.0927   -3.9307    5.2737 H   0  0  0  0  0  0  0  0  0  0  0  0
   -1.0941   -5.9394    5.5657 H   0  0  0  0  0  0  0  0  0  0  0  0
   -2.1850   -7.6813    4.1524 H   0  0  0  0  0  0  0  0  0  0  0  0
   -0.5758   -9.2345    1.3821 H   0  0  0  0  0  0  0  0  0  0  0  0
    3.5175   -4.5585    1.3065 H   0  0  0  0  0  0  0  0  0  0  0  0
    1.8096   -4.6657    1.0462 H   0  0  0  0  0  0  0  0  0  0  0  0
    2.6236   -2.5732    2.0961 H   0  0  0  0  0  0  0  0  0  0  0  0
    1.3639   -3.3383    3.0284 H   0  0  0  0  0  0  0  0  0  0  0  0
    2.1803   -2.0817    5.0217 H   0  0  0  0  0  0  0  0  0  0  0  0
    3.7770   -2.4145    5.6309 H   0  0  0  0  0  0  0  0  0  0  0  0
    3.3421   -0.8361    3.0278 H   0  0  0  0  0  0  0  0  0  0  0  0
    5.7321   -1.1524    5.0036 H   0  0  0  0  0  0  0  0  0  0  0  0
    5.6995   -0.1691    3.4426 H   0  0  0  0  0  0  0  0  0  0  0  0
    3.7576    1.1779    4.3178 H   0  0  0  0  0  0  0  0  0  0  0  0
    3.7669    0.2054    5.8871 H   0  0  0  0  0  0  0  0  0  0  0  0
    2.9621   -6.6788    0.5608 H   0  0  0  0  0  0  0  0  0  0  0  0
  1  2  2  0
  2 26  1  0
  2  3  1  0
  3  4  1  0
  3  6  1  0
  3 28  1  1
  4  5  1  0
  4 29  1  0
  4 30  1  0
  5 31  1  0
  6  7  1  0
  6 32  1  0
  6 33  1  0
  7 18  1  0
  7  8  1  1
  7  9  1  0
  8 34  1  0
  9 21  1  0
  9 10  1  0
  9 35  1  1
 10 11  1  0
 10 36  1  0
 10 37  1  0
 11 17  2  0
 11 12  1  0
 12 13  2  0
 12 38  1  0
 13 14  1  0
 13 39  1  0
 14 15  1  0
 14 16  2  0
 15 40  1  0
 16 27  1  0
 16 17  1  0
 17 18  1  0
 18 19  1  6
 18 26  1  0
 19 20  1  0
 19 41  1  0
 19 42  1  0
 20 21  1  0
 20 43  1  0
 20 44  1  0
 21 22  1  0
 22 23  1  0
 22 45  1  0
 22 46  1  0
 23 25  1  0
 23 24  1  0
 23 47  1  0
 24 25  1  0
 24 48  1  0
 24 49  1  0
 25 50  1  0
 25 51  1  0
 26 27  1  0
 26 52  1  6
M  END
>  <i_m_ct_stereo_status>  (243) 
1

>  <s_m_source_file>  (243) 
/var/tmp/pbs.5076255.sched01/tmpi2d1958y/88otlks1nw.sdf

>  <i_m_source_file_index>  (243) 
27

>  <i_lp_mmshare_version>  (243) 
48012

>  <i_f3d_flags>  (243) 
0

>  <s_epik_input>  (243) 
W09IXVtDSDJdW0NAQEhdKFtDSDJdMSlDKD1PKVtDQEhdMk9jKGMoW09IXSlbY0hdW2NIXTMpYzRjM1tDSDJdW0NAQEhdKFtDQF0xKFtDQEBdMjQ1KVtPSF0pTihbQ0gyXVtDSDJdNSlbQ0gyXVtDSF02W0NIMl1bQ0gyXTY=

>  <s_epik_cmdline>  (243) 
J2VwaWtfcHl0aG9uJywgJy1waHQnLCAnMi4wJywgJy1waCcsICc3LjAnLCAnLXRuJywgJzgnLCAnLW1hJywgJzIwMCcsICctaW1hZScsICc8aW5maWxlLm1hZT4nLCAnLW9tYWUnLCAnPG91dGZpbGUubWFlPic=

>  <r_lp_tautomer_probability>  (243) 
1

>  <r_epik_Ionization_Penalty>  (243) 
1.5726

>  <r_epik_Ionization_Penalty_Charging>  (243) 
0

>  <r_epik_Ionization_Penalty_Neutral>  (243) 
1.5726

>  <r_epik_State_Penalty>  (243) 
1.68605

>  <r_epik_Charging_Adjusted_Penalty>  (243) 
1.68605

>  <i_epik_Tot_Q>  (243) 
0

>  <i_epik_Tot_abs_Q>  (243) 
0

>  <s_lp_Force_Field>  (243) 
OPLS3e

>  <r_lp_Energy>  (243) 
69.6172

>  <b_lp_Chiralities_Consistent>  (243) 
1

>  <s_lp_Variant>  (243) 
71:0-2

>  <s_i_glide_gridfile>  (243) 
pfpi4k_grid

>  <i_i_glide_lignum>  (243) 
27

>  <i_i_glide_rotatable_bonds>  (243) 
6

>  <r_i_docking_score>  (243) 
-2.72541

>  <r_i_glide_ligand_efficiency>  (243) 
-0.100941

>  <r_i_glide_ligand_efficiency_sa>  (243) 
-0.302824

>  <r_i_glide_ligand_efficiency_ln>  (243) 
-0.634432

>  <r_i_glide_gscore>  (243) 
-2.72541

>  <r_i_glide_lipo>  (243) 
-0.200758

>  <r_i_glide_hbond>  (243) 
0

>  <r_i_glide_metal>  (243) 
-0

>  <r_i_glide_rewards>  (243) 
-1.37663

>  <r_i_glide_evdw>  (243) 
-21.0871

>  <r_i_glide_ecoul>  (243) 
-3.40798

>  <r_i_glide_erotb>  (243) 
0.419759

>  <r_i_glide_esite>  (243) 
-0.00222892

>  <r_i_glide_emodel>  (243) 
-34.5272

>  <r_i_glide_energy>  (243) 
-24.4951

>  <r_i_glide_einternal>  (243) 
0.340854

>  <r_i_glide_intrahb_reward>  (243) 
-0.5

>  <i_i_glide_confnum>  (243) 
4

>  <i_i_glide_posenum>  (243) 
13

>  <r_i_glide_eff_state_penalty>  (243) 
0

>  <ligand_id>  (243) 
71

>  <original_smiles>  (243) 
O=C1C(CO)CC2(O)C3Cc4ccc(O)c5c4C2(CCN3CC2CC2)C1O5

>  <smiles>  (243) 
[H]Oc1c([H])c([H])c2c3c1OC1([H])C(=O)C([H])(C([H])([H])O[H])C([H])([H])C4(O[H])C([H])(N(C([H])([H])C5([H])C([H])([H])C5([H])[H])C([H])([H])C([H])([H])C314)C2([H])[H]

$$$$
71:1:2
     RDKit          3D

 52 57  0  0  1  0  0  0  0  0999 V2000
    4.0741  -10.6147    2.8984 O   0  0  0  0  0  0  0  0  0  0  0  0
    4.1332   -9.3895    2.8716 C   0  0  0  0  0  0  0  0  0  0  0  0
    5.2810   -8.6551    3.6146 C   0  0  1  0  0  0  0  0  0  0  0  0
    6.6491   -8.9243    2.9512 C   0  0  0  0  0  0  0  0  0  0  0  0
    7.0197  -10.2835    3.1033 O   0  0  0  0  0  0  0  0  0  0  0  0
    5.0106   -7.1413    3.8881 C   0  0  0  0  0  0  0  0  0  0  0  0
    3.5046   -6.8428    4.0778 C   0  0  1  0  0  0  0  0  0  0  0  0
    3.1169   -7.6476    5.1927 O   0  0  0  0  0  0  0  0  0  0  0  0
    3.0505   -5.3918    4.4294 C   0  0  2  0  0  0  0  0  0  0  0  0
    1.4889   -5.3189    4.6251 C   0  0  0  0  0  0  0  0  0  0  0  0
    0.6255   -6.3651    3.9037 C   0  0  0  0  0  0  0  0  0  0  0  0
   -0.7389   -6.6622    4.1153 C   0  0  0  0  0  0  0  0  0  0  0  0
   -1.3183   -7.8031    3.5084 C   0  0  0  0  0  0  0  0  0  0  0  0
   -0.5306   -8.7044    2.7527 C   0  0  0  0  0  0  0  0  0  0  0  0
   -1.1039   -9.8116    2.1968 O   0  0  0  0  0  0  0  0  0  0  0  0
    0.8433   -8.4539    2.5636 C   0  0  0  0  0  0  0  0  0  0  0  0
    1.3213   -7.2674    3.0838 C   0  0  0  0  0  0  0  0  0  0  0  0
    2.7711   -7.1853    2.7611 C   0  0  1  0  0  0  0  0  0  0  0  0
    3.0695   -6.1230    1.6658 C   0  0  0  0  0  0  0  0  0  0  0  0
    2.8914   -4.6797    2.1349 C   0  0  0  0  0  0  0  0  0  0  0  0
    3.5446   -4.4350    3.4221 N   0  0  0  0  0  0  0  0  0  0  0  0
    3.4663   -3.0381    3.8564 C   0  0  0  0  0  0  0  0  0  0  0  0
    4.2088   -2.0543    2.9624 C   0  0  0  0  0  0  0  0  0  0  0  0
    5.2964   -1.1738    3.5308 C   0  0  0  0  0  0  0  0  0  0  0  0
    3.9811   -0.5660    3.1131 C   0  0  0  0  0  0  0  0  0  0  0  0
    3.0732   -8.5685    2.1170 C   0  0  2  0  0  0  0  0  0  0  0  0
    1.8095   -9.2544    2.0037 O   0  0  0  0  0  0  0  0  0  0  0  0
    5.3212   -9.1232    4.6013 H   0  0  0  0  0  0  0  0  0  0  0  0
    6.6405   -8.6703    1.8894 H   0  0  0  0  0  0  0  0  0  0  0  0
    7.4269   -8.3211    3.4220 H   0  0  0  0  0  0  0  0  0  0  0  0
    6.3211  -10.8300    2.7616 H   0  0  0  0  0  0  0  0  0  0  0  0
    5.5564   -6.8408    4.7834 H   0  0  0  0  0  0  0  0  0  0  0  0
    5.4227   -6.5362    3.0821 H   0  0  0  0  0  0  0  0  0  0  0  0
    3.2379   -8.5608    4.9712 H   0  0  0  0  0  0  0  0  0  0  0  0
    3.5072   -5.1380    5.3854 H   0  0  0  0  0  0  0  0  0  0  0  0
    1.2860   -5.4650    5.6805 H   0  0  0  0  0  0  0  0  0  0  0  0
    1.0920   -4.3292    4.3961 H   0  0  0  0  0  0  0  0  0  0  0  0
   -1.3385   -6.0435    4.7676 H   0  0  0  0  0  0  0  0  0  0  0  0
   -2.3634   -8.0265    3.6559 H   0  0  0  0  0  0  0  0  0  0  0  0
   -0.5481  -10.2046    1.5369 H   0  0  0  0  0  0  0  0  0  0  0  0
    4.1072   -6.2281    1.3449 H   0  0  0  0  0  0  0  0  0  0  0  0
    2.4740   -6.2943    0.7682 H   0  0  0  0  0  0  0  0  0  0  0  0
    3.3139   -4.0501    1.3548 H   0  0  0  0  0  0  0  0  0  0  0  0
    1.8328   -4.4326    2.1941 H   0  0  0  0  0  0  0  0  0  0  0  0
    2.4270   -2.7203    3.9260 H   0  0  0  0  0  0  0  0  0  0  0  0
    3.8694   -2.9464    4.8668 H   0  0  0  0  0  0  0  0  0  0  0  0
    4.3713   -2.3838    1.9366 H   0  0  0  0  0  0  0  0  0  0  0  0
    5.5093   -1.2747    4.5950 H   0  0  0  0  0  0  0  0  0  0  0  0
    6.1590   -1.0194    2.8858 H   0  0  0  0  0  0  0  0  0  0  0  0
    3.9605    0.0112    2.1907 H   0  0  0  0  0  0  0  0  0  0  0  0
    3.2881   -0.2412    3.8896 H   0  0  0  0  0  0  0  0  0  0  0  0
    3.4476   -8.4427    1.0983 H   0  0  0  0  0  0  0  0  0  0  0  0
  1  2  2  0
  2 26  1  0
  2  3  1  0
  3  4  1  0
  3  6  1  0
  3 28  1  1
  4  5  1  0
  4 29  1  0
  4 30  1  0
  5 31  1  0
  6  7  1  0
  6 32  1  0
  6 33  1  0
  7 18  1  0
  7  8  1  1
  7  9  1  0
  8 34  1  0
  9 21  1  0
  9 10  1  0
  9 35  1  1
 10 11  1  0
 10 36  1  0
 10 37  1  0
 11 17  2  0
 11 12  1  0
 12 13  2  0
 12 38  1  0
 13 14  1  0
 13 39  1  0
 14 15  1  0
 14 16  2  0
 15 40  1  0
 16 27  1  0
 16 17  1  0
 17 18  1  0
 18 19  1  6
 18 26  1  0
 19 20  1  0
 19 41  1  0
 19 42  1  0
 20 21  1  0
 20 43  1  0
 20 44  1  0
 21 22  1  0
 22 23  1  0
 22 45  1  0
 22 46  1  0
 23 25  1  0
 23 24  1  0
 23 47  1  0
 24 25  1  0
 24 48  1  0
 24 49  1  0
 25 50  1  0
 25 51  1  0
 26 27  1  0
 26 52  1  6
M  END
>  <i_m_ct_stereo_status>  (244) 
1

>  <s_m_source_file>  (244) 
/var/tmp/pbs.5076255.sched01/tmpi2d1958y/88otlks1nw.sdf

>  <i_m_source_file_index>  (244) 
27

>  <i_lp_mmshare_version>  (244) 
48012

>  <i_f3d_flags>  (244) 
0

>  <s_epik_input>  (244) 
W09IXVtDSDJdW0NAQEhdKFtDSDJdMSlDKD1PKVtDQEhdMk9jKGMoW09IXSlbY0hdW2NIXTMpYzRjM1tDSDJdW0NAQEhdKFtDQF0xKFtDQEBdMjQ1KVtPSF0pTihbQ0gyXVtDSDJdNSlbQ0gyXVtDSF02W0NIMl1bQ0gyXTY=

>  <s_epik_cmdline>  (244) 
J2VwaWtfcHl0aG9uJywgJy1waHQnLCAnMi4wJywgJy1waCcsICc3LjAnLCAnLXRuJywgJzgnLCAnLW1hJywgJzIwMCcsICctaW1hZScsICc8aW5maWxlLm1hZT4nLCAnLW9tYWUnLCAnPG91dGZpbGUubWFlPic=

>  <r_lp_tautomer_probability>  (244) 
1

>  <r_epik_Ionization_Penalty>  (244) 
1.5726

>  <r_epik_Ionization_Penalty_Charging>  (244) 
0

>  <r_epik_Ionization_Penalty_Neutral>  (244) 
1.5726

>  <r_epik_State_Penalty>  (244) 
1.68605

>  <r_epik_Charging_Adjusted_Penalty>  (244) 
1.68605

>  <i_epik_Tot_Q>  (244) 
0

>  <i_epik_Tot_abs_Q>  (244) 
0

>  <s_lp_Force_Field>  (244) 
OPLS3e

>  <r_lp_Energy>  (244) 
69.6172

>  <b_lp_Chiralities_Consistent>  (244) 
1

>  <s_lp_Variant>  (244) 
71:0-2

>  <s_i_glide_gridfile>  (244) 
pfpi4k_grid

>  <i_i_glide_lignum>  (244) 
27

>  <i_i_glide_rotatable_bonds>  (244) 
6

>  <r_i_docking_score>  (244) 
-2.50942

>  <r_i_glide_ligand_efficiency>  (244) 
-0.0929414

>  <r_i_glide_ligand_efficiency_sa>  (244) 
-0.278824

>  <r_i_glide_ligand_efficiency_ln>  (244) 
-0.584151

>  <r_i_glide_gscore>  (244) 
-2.50942

>  <r_i_glide_lipo>  (244) 
-0.174937

>  <r_i_glide_hbond>  (244) 
0

>  <r_i_glide_metal>  (244) 
-0

>  <r_i_glide_rewards>  (244) 
-1.37663

>  <r_i_glide_evdw>  (244) 
-19.8824

>  <r_i_glide_ecoul>  (244) 
-2.41866

>  <r_i_glide_erotb>  (244) 
0.419759

>  <r_i_glide_esite>  (244) 
-0.0206868

>  <r_i_glide_emodel>  (244) 
-31.4488

>  <r_i_glide_energy>  (244) 
-22.301

>  <r_i_glide_einternal>  (244) 
1.12057

>  <r_i_glide_intrahb_reward>  (244) 
-0.5

>  <i_i_glide_confnum>  (244) 
4

>  <i_i_glide_posenum>  (244) 
23

>  <r_i_glide_eff_state_penalty>  (244) 
0

>  <ligand_id>  (244) 
71

>  <original_smiles>  (244) 
O=C1C(CO)CC2(O)C3Cc4ccc(O)c5c4C2(CCN3CC2CC2)C1O5

>  <smiles>  (244) 
[H]Oc1c([H])c([H])c2c3c1OC1([H])C(=O)C([H])(C([H])([H])O[H])C([H])([H])C4(O[H])C([H])(N(C([H])([H])C5([H])C([H])([H])C5([H])[H])C([H])([H])C([H])([H])C314)C2([H])[H]

$$$$
71:2:0
     RDKit          3D

 52 57  0  0  1  0  0  0  0  0999 V2000
    0.0439    5.2444    5.2125 O   0  0  0  0  0  0  0  0  0  0  0  0
    0.8223    4.4421    4.6973 C   0  0  0  0  0  0  0  0  0  0  0  0
    1.5240    4.7727    3.3524 C   0  0  1  0  0  0  0  0  0  0  0  0
    2.5109    5.9563    3.4624 C   0  0  0  0  0  0  0  0  0  0  0  0
    1.8713    7.1831    3.7856 O   0  0  0  0  0  0  0  0  0  0  0  0
    2.1537    3.5274    2.6407 C   0  0  0  0  0  0  0  0  0  0  0  0
    1.3479    2.2264    2.9113 C   0  0  1  0  0  0  0  0  0  0  0  0
    0.0242    2.5301    2.4846 O   0  0  0  0  0  0  0  0  0  0  0  0
    1.7302    0.8971    2.1984 C   0  0  2  0  0  0  0  0  0  0  0  0
    0.7432   -0.2599    2.5935 C   0  0  0  0  0  0  0  0  0  0  0  0
    0.0558   -0.2012    3.9703 C   0  0  0  0  0  0  0  0  0  0  0  0
   -0.9836   -1.0091    4.4599 C   0  0  0  0  0  0  0  0  0  0  0  0
   -1.7062   -0.6154    5.6069 C   0  0  0  0  0  0  0  0  0  0  0  0
   -1.4133    0.6041    6.2574 C   0  0  0  0  0  0  0  0  0  0  0  0
   -2.2086    0.9852    7.2924 O   0  0  0  0  0  0  0  0  0  0  0  0
   -0.3538    1.4286    5.8175 C   0  0  0  0  0  0  0  0  0  0  0  0
    0.3509    0.9384    4.7356 C   0  0  0  0  0  0  0  0  0  0  0  0
    1.4202    1.9307    4.4211 C   0  0  1  0  0  0  0  0  0  0  0  0
    2.8315    1.3960    4.7980 C   0  0  0  0  0  0  0  0  0  0  0  0
    3.3021    0.2193    3.9432 C   0  0  0  0  0  0  0  0  0  0  0  0
    3.1282    0.5068    2.5025 N   0  0  1  0  0  0  0  0  0  0  0  0
    3.6563   -0.5710    1.6267 C   0  0  0  0  0  0  0  0  0  0  0  0
    5.1599   -0.4958    1.4746 C   0  0  0  0  0  0  0  0  0  0  0  0
    5.9558   -1.7274    1.0831 C   0  0  0  0  0  0  0  0  0  0  0  0
    6.0846   -1.1646    2.4701 C   0  0  0  0  0  0  0  0  0  0  0  0
    1.1162    3.1061    5.3921 C   0  0  2  0  0  0  0  0  0  0  0  0
    0.0261    2.6792    6.2327 O   0  0  0  0  0  0  0  0  0  0  0  0
    0.7159    5.1251    2.7098 H   0  0  0  0  0  0  0  0  0  0  0  0
    3.2791    5.7504    4.2084 H   0  0  0  0  0  0  0  0  0  0  0  0
    3.0320    6.1003    2.5172 H   0  0  0  0  0  0  0  0  0  0  0  0
    1.2402    7.4514    3.1165 H   0  0  0  0  0  0  0  0  0  0  0  0
    2.2005    3.7278    1.5730 H   0  0  0  0  0  0  0  0  0  0  0  0
    3.1995    3.4016    2.9310 H   0  0  0  0  0  0  0  0  0  0  0  0
    0.0539    3.1877    1.7769 H   0  0  0  0  0  0  0  0  0  0  0  0
    1.6579    1.0356    1.1164 H   0  0  0  0  0  0  0  0  0  0  0  0
   -0.0539   -0.2149    1.8558 H   0  0  0  0  0  0  0  0  0  0  0  0
    1.1917   -1.2450    2.4798 H   0  0  0  0  0  0  0  0  0  0  0  0
   -1.3054   -1.8838    3.9157 H   0  0  0  0  0  0  0  0  0  0  0  0
   -2.5376   -1.2113    5.9294 H   0  0  0  0  0  0  0  0  0  0  0  0
    3.5673    2.1956    4.7090 H   0  0  0  0  0  0  0  0  0  0  0  0
    2.8616    1.1130    5.8493 H   0  0  0  0  0  0  0  0  0  0  0  0
    4.3453    0.0328    4.1738 H   0  0  0  0  0  0  0  0  0  0  0  0
    2.7742   -0.6854    4.2442 H   0  0  0  0  0  0  0  0  0  0  0  0
    3.3927   -1.5554    2.0094 H   0  0  0  0  0  0  0  0  0  0  0  0
    3.2316   -0.5156    0.6255 H   0  0  0  0  0  0  0  0  0  0  0  0
    5.5124    0.4196    1.0034 H   0  0  0  0  0  0  0  0  0  0  0  0
    5.4337   -2.6760    0.9807 H   0  0  0  0  0  0  0  0  0  0  0  0
    6.8250   -1.6058    0.4394 H   0  0  0  0  0  0  0  0  0  0  0  0
    7.0138   -0.6559    2.7168 H   0  0  0  0  0  0  0  0  0  0  0  0
    5.6289   -1.7204    3.2869 H   0  0  0  0  0  0  0  0  0  0  0  0
    1.9600    3.2795    6.0594 H   0  0  0  0  0  0  0  0  0  0  0  0
    3.6858    1.3263    2.2973 H   0  0  0  0  0  0  0  0  0  0  0  0
  1  2  2  0
  2 26  1  0
  2  3  1  0
  3  4  1  0
  3  6  1  0
  3 28  1  6
  4  5  1  0
  4 29  1  0
  4 30  1  0
  5 31  1  0
  6  7  1  0
  6 32  1  0
  6 33  1  0
  7 18  1  0
  7  8  1  6
  7  9  1  0
  8 34  1  0
  9 21  1  0
  9 10  1  0
  9 35  1  6
 10 11  1  0
 10 36  1  0
 10 37  1  0
 11 17  2  0
 11 12  1  0
 12 13  2  0
 12 38  1  0
 13 14  1  0
 13 39  1  0
 14 15  1  0
 14 16  2  0
 16 27  1  0
 16 17  1  0
 17 18  1  0
 18 19  1  1
 18 26  1  0
 19 20  1  0
 19 40  1  0
 19 41  1  0
 20 21  1  0
 20 42  1  0
 20 43  1  0
 21 22  1  0
 21 52  1  6
 22 23  1  0
 22 44  1  0
 22 45  1  0
 23 25  1  0
 23 24  1  0
 23 46  1  0
 24 25  1  0
 24 47  1  0
 24 48  1  0
 25 49  1  0
 25 50  1  0
 26 27  1  0
 26 51  1  1
M  CHG  2  15  -1  21   1
M  END
>  <i_m_ct_stereo_status>  (245) 
1

>  <s_m_source_file>  (245) 
/var/tmp/pbs.5076255.sched01/tmpi2d1958y/88otlks1nw.sdf

>  <i_m_source_file_index>  (245) 
28

>  <i_lp_mmshare_version>  (245) 
48012

>  <i_f3d_flags>  (245) 
0

>  <s_epik_input>  (245) 
W09IXVtDSDJdW0NAQEhdKFtDSDJdMSlDKD1PKVtDQEhdMk9jKGMoW09IXSlbY0hdW2NIXTMpYzRjM1tDSDJdW0NAQEhdKFtDQF0xKFtDQEBdMjQ1KVtPSF0pTihbQ0gyXVtDSDJdNSlbQ0gyXVtDSF02W0NIMl1bQ0gyXTY=

>  <s_epik_cmdline>  (245) 
J2VwaWtfcHl0aG9uJywgJy1waHQnLCAnMi4wJywgJy1waCcsICc3LjAnLCAnLXRuJywgJzgnLCAnLW1hJywgJzIwMCcsICctaW1hZScsICc8aW5maWxlLm1hZT4nLCAnLW9tYWUnLCAnPG91dGZpbGUubWFlPic=

>  <r_epik_Ionization_Penalty>  (245) 
1.92873

>  <r_epik_Ionization_Penalty_Charging>  (245) 
1.92873

>  <r_epik_Ionization_Penalty_Neutral>  (245) 
4.46146e-07

>  <r_epik_State_Penalty>  (245) 
2.04502

>  <r_epik_Charging_Adjusted_Penalty>  (245) 
3.97375

>  <i_epik_Tot_Q>  (245) 
0

>  <i_epik_Tot_abs_Q>  (245) 
2

>  <s_lp_Force_Field>  (245) 
OPLS3e

>  <r_lp_Energy>  (245) 
66.3731

>  <b_lp_Chiralities_Consistent>  (245) 
1

>  <s_lp_Variant>  (245) 
71:0-3

>  <s_i_glide_gridfile>  (245) 
pfpi4k_grid

>  <i_i_glide_lignum>  (245) 
28

>  <i_i_glide_rotatable_bonds>  (245) 
5

>  <r_i_docking_score>  (245) 
-4.55374

>  <r_i_glide_ligand_efficiency>  (245) 
-0.168657

>  <r_i_glide_ligand_efficiency_sa>  (245) 
-0.505971

>  <r_i_glide_ligand_efficiency_ln>  (245) 
-1.06004

>  <r_i_glide_gscore>  (245) 
-4.55374

>  <r_i_glide_lipo>  (245) 
-0.412334

>  <r_i_glide_hbond>  (245) 
-0.351713

>  <r_i_glide_metal>  (245) 
-0

>  <r_i_glide_rewards>  (245) 
-0.876635

>  <r_i_glide_evdw>  (245) 
-16.5676

>  <r_i_glide_ecoul>  (245) 
-16.5269

>  <r_i_glide_erotb>  (245) 
0.419759

>  <r_i_glide_esite>  (245) 
-0.0254059

>  <r_i_glide_emodel>  (245) 
-47.9928

>  <r_i_glide_energy>  (245) 
-33.0945

>  <r_i_glide_einternal>  (245) 
1.51517

>  <r_i_glide_intrahb_reward>  (245) 
-0

>  <i_i_glide_confnum>  (245) 
4

>  <i_i_glide_posenum>  (245) 
34

>  <r_i_glide_eff_state_penalty>  (245) 
0

>  <ligand_id>  (245) 
71

>  <original_smiles>  (245) 
O=C1C(CO)CC2(O)C3Cc4ccc(O)c5c4C2(CCN3CC2CC2)C1O5

>  <smiles>  (245) 
[H]OC([H])([H])C1([H])C(=O)C2([H])Oc3c([O-])c([H])c([H])c4c3C23C([H])([H])C([H])([H])[N+]([H])(C([H])([H])C2([H])C([H])([H])C2([H])[H])C([H])(C4([H])[H])C3(O[H])C1([H])[H]

$$$$
71:2:1
     RDKit          3D

 52 57  0  0  1  0  0  0  0  0999 V2000
    2.0631    6.9027    6.3186 O   0  0  0  0  0  0  0  0  0  0  0  0
    2.2760    5.8780    5.6751 C   0  0  0  0  0  0  0  0  0  0  0  0
    3.0877    5.9438    4.3546 C   0  0  1  0  0  0  0  0  0  0  0  0
    4.5299    6.4415    4.6025 C   0  0  0  0  0  0  0  0  0  0  0  0
    4.5433    7.8047    4.9751 O   0  0  0  0  0  0  0  0  0  0  0  0
    3.0107    4.6448    3.4823 C   0  0  0  0  0  0  0  0  0  0  0  0
    1.6571    3.9138    3.6341 C   0  0  1  0  0  0  0  0  0  0  0  0
    0.6876    4.8997    3.2792 O   0  0  0  0  0  0  0  0  0  0  0  0
    1.3438    2.6520    2.7624 C   0  0  2  0  0  0  0  0  0  0  0  0
   -0.1184    2.1322    3.0430 C   0  0  0  0  0  0  0  0  0  0  0  0
   -0.7291    2.4071    4.4260 C   0  0  0  0  0  0  0  0  0  0  0  0
   -2.0622    2.2196    4.8194 C   0  0  0  0  0  0  0  0  0  0  0  0
   -2.5075    2.7627    6.0535 C   0  0  0  0  0  0  0  0  0  0  0  0
   -1.6594    3.5610    6.8630 C   0  0  0  0  0  0  0  0  0  0  0  0
   -2.1630    4.1449    7.9932 O   0  0  0  0  0  0  0  0  0  0  0  0
   -0.3192    3.7773    6.4750 C   0  0  0  0  0  0  0  0  0  0  0  0
    0.0808    3.1256    5.3234 C   0  0  0  0  0  0  0  0  0  0  0  0
    1.5167    3.4607    5.0991 C   0  0  1  0  0  0  0  0  0  0  0  0
    2.4450    2.2493    5.3889 C   0  0  0  0  0  0  0  0  0  0  0  0
    2.2807    1.0892    4.4079 C   0  0  0  0  0  0  0  0  0  0  0  0
    2.3429    1.5718    3.0070 N   0  0  1  0  0  0  0  0  0  0  0  0
    2.3000    0.4813    1.9955 C   0  0  0  0  0  0  0  0  0  0  0  0
    3.5449   -0.3932    2.0083 C   0  0  0  0  0  0  0  0  0  0  0  0
    4.6091   -0.2181    0.9563 C   0  0  0  0  0  0  0  0  0  0  0  0
    3.7432   -1.4490    0.9430 C   0  0  0  0  0  0  0  0  0  0  0  0
    1.8093    4.5138    6.2036 C   0  0  2  0  0  0  0  0  0  0  0  0
    0.6261    4.6082    7.0171 O   0  0  0  0  0  0  0  0  0  0  0  0
    2.5872    6.7188    3.7691 H   0  0  0  0  0  0  0  0  0  0  0  0
    5.0399    5.8628    5.3742 H   0  0  0  0  0  0  0  0  0  0  0  0
    5.1239    6.3617    3.6950 H   0  0  0  0  0  0  0  0  0  0  0  0
    3.9399    7.9262    5.6953 H   0  0  0  0  0  0  0  0  0  0  0  0
    3.1721    4.9166    2.4390 H   0  0  0  0  0  0  0  0  0  0  0  0
    3.8248    3.9702    3.7373 H   0  0  0  0  0  0  0  0  0  0  0  0
    0.5181    4.8505    2.3338 H   0  0  0  0  0  0  0  0  0  0  0  0
    1.4323    2.9233    1.7099 H   0  0  0  0  0  0  0  0  0  0  0  0
   -0.7840    2.6114    2.3226 H   0  0  0  0  0  0  0  0  0  0  0  0
   -0.2255    1.0697    2.8338 H   0  0  0  0  0  0  0  0  0  0  0  0
   -2.7434    1.7081    4.1481 H   0  0  0  0  0  0  0  0  0  0  0  0
   -3.5267    2.6261    6.3586 H   0  0  0  0  0  0  0  0  0  0  0  0
    3.4915    2.5589    5.3698 H   0  0  0  0  0  0  0  0  0  0  0  0
    2.2916    1.8777    6.4017 H   0  0  0  0  0  0  0  0  0  0  0  0
    3.0698    0.3742    4.6189 H   0  0  0  0  0  0  0  0  0  0  0  0
    1.3501    0.5536    4.6022 H   0  0  0  0  0  0  0  0  0  0  0  0
    1.4317   -0.1639    2.1354 H   0  0  0  0  0  0  0  0  0  0  0  0
    2.1913    0.9069    0.9969 H   0  0  0  0  0  0  0  0  0  0  0  0
    3.8853   -0.7246    2.9861 H   0  0  0  0  0  0  0  0  0  0  0  0
    4.4243    0.5392    0.1990 H   0  0  0  0  0  0  0  0  0  0  0  0
    5.6428   -0.3258    1.2796 H   0  0  0  0  0  0  0  0  0  0  0  0
    4.2167   -2.3830    1.2381 H   0  0  0  0  0  0  0  0  0  0  0  0
    2.9948   -1.5348    0.1578 H   0  0  0  0  0  0  0  0  0  0  0  0
    2.5950    4.1623    6.8736 H   0  0  0  0  0  0  0  0  0  0  0  0
    3.2449    2.0132    2.8775 H   0  0  0  0  0  0  0  0  0  0  0  0
  1  2  2  0
  2 26  1  0
  2  3  1  0
  3  4  1  0
  3  6  1  0
  3 28  1  6
  4  5  1  0
  4 29  1  0
  4 30  1  0
  5 31  1  0
  6  7  1  0
  6 32  1  0
  6 33  1  0
  7 18  1  0
  7  8  1  6
  7  9  1  0
  8 34  1  0
  9 21  1  0
  9 10  1  0
  9 35  1  6
 10 11  1  0
 10 36  1  0
 10 37  1  0
 11 17  2  0
 11 12  1  0
 12 13  2  0
 12 38  1  0
 13 14  1  0
 13 39  1  0
 14 15  1  0
 14 16  2  0
 16 27  1  0
 16 17  1  0
 17 18  1  0
 18 19  1  1
 18 26  1  0
 19 20  1  0
 19 40  1  0
 19 41  1  0
 20 21  1  0
 20 42  1  0
 20 43  1  0
 21 22  1  0
 21 52  1  1
 22 23  1  0
 22 44  1  0
 22 45  1  0
 23 25  1  0
 23 24  1  0
 23 46  1  0
 24 25  1  0
 24 47  1  0
 24 48  1  0
 25 49  1  0
 25 50  1  0
 26 27  1  0
 26 51  1  1
M  CHG  2  15  -1  21   1
M  END
>  <i_m_ct_stereo_status>  (246) 
1

>  <s_m_source_file>  (246) 
/var/tmp/pbs.5076255.sched01/tmpi2d1958y/88otlks1nw.sdf

>  <i_m_source_file_index>  (246) 
28

>  <i_lp_mmshare_version>  (246) 
48012

>  <i_f3d_flags>  (246) 
0

>  <s_epik_input>  (246) 
W09IXVtDSDJdW0NAQEhdKFtDSDJdMSlDKD1PKVtDQEhdMk9jKGMoW09IXSlbY0hdW2NIXTMpYzRjM1tDSDJdW0NAQEhdKFtDQF0xKFtDQEBdMjQ1KVtPSF0pTihbQ0gyXVtDSDJdNSlbQ0gyXVtDSF02W0NIMl1bQ0gyXTY=

>  <s_epik_cmdline>  (246) 
J2VwaWtfcHl0aG9uJywgJy1waHQnLCAnMi4wJywgJy1waCcsICc3LjAnLCAnLXRuJywgJzgnLCAnLW1hJywgJzIwMCcsICctaW1hZScsICc8aW5maWxlLm1hZT4nLCAnLW9tYWUnLCAnPG91dGZpbGUubWFlPic=

>  <r_epik_Ionization_Penalty>  (246) 
1.92873

>  <r_epik_Ionization_Penalty_Charging>  (246) 
1.92873

>  <r_epik_Ionization_Penalty_Neutral>  (246) 
4.46146e-07

>  <r_epik_State_Penalty>  (246) 
2.04502

>  <r_epik_Charging_Adjusted_Penalty>  (246) 
3.97375

>  <i_epik_Tot_Q>  (246) 
0

>  <i_epik_Tot_abs_Q>  (246) 
2

>  <s_lp_Force_Field>  (246) 
OPLS3e

>  <r_lp_Energy>  (246) 
66.3731

>  <b_lp_Chiralities_Consistent>  (246) 
1

>  <s_lp_Variant>  (246) 
71:0-3

>  <s_i_glide_gridfile>  (246) 
pfpi4k_grid

>  <i_i_glide_lignum>  (246) 
28

>  <i_i_glide_rotatable_bonds>  (246) 
5

>  <r_i_docking_score>  (246) 
-3.97629

>  <r_i_glide_ligand_efficiency>  (246) 
-0.14727

>  <r_i_glide_ligand_efficiency_sa>  (246) 
-0.441811

>  <r_i_glide_ligand_efficiency_ln>  (246) 
-0.925616

>  <r_i_glide_gscore>  (246) 
-3.97629

>  <r_i_glide_lipo>  (246) 
-0.386109

>  <r_i_glide_hbond>  (246) 
-0.16

>  <r_i_glide_metal>  (246) 
-0

>  <r_i_glide_rewards>  (246) 
-1.37663

>  <r_i_glide_evdw>  (246) 
-18.4006

>  <r_i_glide_ecoul>  (246) 
-10.3468

>  <r_i_glide_erotb>  (246) 
0.419759

>  <r_i_glide_esite>  (246) 
-0.00126225

>  <r_i_glide_emodel>  (246) 
-46.8734

>  <r_i_glide_energy>  (246) 
-28.7474

>  <r_i_glide_einternal>  (246) 
0.897274

>  <r_i_glide_intrahb_reward>  (246) 
-0.5

>  <i_i_glide_confnum>  (246) 
4

>  <i_i_glide_posenum>  (246) 
21

>  <r_i_glide_eff_state_penalty>  (246) 
0

>  <ligand_id>  (246) 
71

>  <original_smiles>  (246) 
O=C1C(CO)CC2(O)C3Cc4ccc(O)c5c4C2(CCN3CC2CC2)C1O5

>  <smiles>  (246) 
[H]OC([H])([H])C1([H])C(=O)C2([H])Oc3c([O-])c([H])c([H])c4c3C23C([H])([H])C([H])([H])[N+]([H])(C([H])([H])C2([H])C([H])([H])C2([H])[H])C([H])(C4([H])[H])C3(O[H])C1([H])[H]

$$$$
71:2:2
     RDKit          3D

 52 57  0  0  1  0  0  0  0  0999 V2000
    0.4406    6.8902    5.9051 O   0  0  0  0  0  0  0  0  0  0  0  0
    1.0130    5.9598    5.3477 C   0  0  0  0  0  0  0  0  0  0  0  0
    1.6240    6.1395    3.9315 C   0  0  1  0  0  0  0  0  0  0  0  0
    2.7847    7.1571    3.9263 C   0  0  0  0  0  0  0  0  0  0  0  0
    2.2678    8.4725    3.9810 O   0  0  0  0  0  0  0  0  0  0  0  0
    1.9609    4.8025    3.1957 C   0  0  0  0  0  0  0  0  0  0  0  0
    0.9912    3.6616    3.5886 C   0  0  1  0  0  0  0  0  0  0  0  0
   -0.2950    4.1796    3.2809 O   0  0  0  0  0  0  0  0  0  0  0  0
    1.0974    2.2706    2.8728 C   0  0  2  0  0  0  0  0  0  0  0  0
   -0.0308    1.2956    3.3922 C   0  0  0  0  0  0  0  0  0  0  0  0
   -0.5642    1.4942    4.8167 C   0  0  0  0  0  0  0  0  0  0  0  0
   -1.6819    0.8748    5.4092 C   0  0  0  0  0  0  0  0  0  0  0  0
   -2.1818    1.3828    6.6310 C   0  0  0  0  0  0  0  0  0  0  0  0
   -1.6276    2.5396    7.2479 C   0  0  0  0  0  0  0  0  0  0  0  0
   -2.2160    3.0394    8.3748 O   0  0  0  0  0  0  0  0  0  0  0  0
   -0.5113    3.1781    6.6638 C   0  0  0  0  0  0  0  0  0  0  0  0
   -0.0104    2.5744    5.5312 C   0  0  0  0  0  0  0  0  0  0  0  0
    1.1687    3.3790    5.0899 C   0  0  1  0  0  0  0  0  0  0  0  0
    2.5057    2.6348    5.3511 C   0  0  0  0  0  0  0  0  0  0  0  0
    2.6942    1.3775    4.5069 C   0  0  0  0  0  0  0  0  0  0  0  0
    2.4499    1.6647    3.0742 N   0  0  1  0  0  0  0  0  0  0  0  0
    2.7314    0.5149    2.1701 C   0  0  0  0  0  0  0  0  0  0  0  0
    4.1892    0.0679    2.1778 C   0  0  0  0  0  0  0  0  0  0  0  0
    4.9265   -0.1660    0.8820 C   0  0  0  0  0  0  0  0  0  0  0  0
    4.5518   -1.3393    1.7419 C   0  0  0  0  0  0  0  0  0  0  0  0
    1.1530    4.5989    6.0503 C   0  0  2  0  0  0  0  0  0  0  0  0
    0.0979    4.3617    7.0015 O   0  0  0  0  0  0  0  0  0  0  0  0
    0.8159    6.5826    3.3455 H   0  0  0  0  0  0  0  0  0  0  0  0
    3.4660    7.0093    4.7651 H   0  0  0  0  0  0  0  0  0  0  0  0
    3.3926    7.0594    3.0273 H   0  0  0  0  0  0  0  0  0  0  0  0
    1.5488    8.5448    3.3556 H   0  0  0  0  0  0  0  0  0  0  0  0
    1.9039    4.9804    2.1199 H   0  0  0  0  0  0  0  0  0  0  0  0
    2.9963    4.5173    3.3835 H   0  0  0  0  0  0  0  0  0  0  0  0
   -0.3133    4.2849    2.3219 H   0  0  0  0  0  0  0  0  0  0  0  0
    0.9651    2.4094    1.7972 H   0  0  0  0  0  0  0  0  0  0  0  0
   -0.8909    1.4102    2.7301 H   0  0  0  0  0  0  0  0  0  0  0  0
    0.2480    0.2493    3.2923 H   0  0  0  0  0  0  0  0  0  0  0  0
   -2.1945    0.0678    4.8897 H   0  0  0  0  0  0  0  0  0  0  0  0
   -3.0560    0.9510    7.0697 H   0  0  0  0  0  0  0  0  0  0  0  0
    3.3536    3.2953    5.1634 H   0  0  0  0  0  0  0  0  0  0  0  0
    2.6020    2.3662    6.4005 H   0  0  0  0  0  0  0  0  0  0  0  0
    3.7051    1.0276    4.6916 H   0  0  0  0  0  0  0  0  0  0  0  0
    2.0551    0.5704    4.8674 H   0  0  0  0  0  0  0  0  0  0  0  0
    2.1203   -0.3514    2.4221 H   0  0  0  0  0  0  0  0  0  0  0  0
    2.4550    0.7800    1.1495 H   0  0  0  0  0  0  0  0  0  0  0  0
    4.8153    0.4491    2.9808 H   0  0  0  0  0  0  0  0  0  0  0  0
    4.3762   -0.0100   -0.0425 H   0  0  0  0  0  0  0  0  0  0  0  0
    5.9713    0.1342    0.8664 H   0  0  0  0  0  0  0  0  0  0  0  0
    5.3586   -1.8351    2.2787 H   0  0  0  0  0  0  0  0  0  0  0  0
    3.7579   -1.9938    1.3859 H   0  0  0  0  0  0  0  0  0  0  0  0
    2.0736    4.6437    6.6336 H   0  0  0  0  0  0  0  0  0  0  0  0
    3.1145    2.3767    2.7932 H   0  0  0  0  0  0  0  0  0  0  0  0
  1  2  2  0
  2 26  1  0
  2  3  1  0
  3  4  1  0
  3  6  1  0
  3 28  1  6
  4  5  1  0
  4 29  1  0
  4 30  1  0
  5 31  1  0
  6  7  1  0
  6 32  1  0
  6 33  1  0
  7 18  1  0
  7  8  1  1
  7  9  1  0
  8 34  1  0
  9 21  1  0
  9 10  1  0
  9 35  1  6
 10 11  1  0
 10 36  1  0
 10 37  1  0
 11 17  2  0
 11 12  1  0
 12 13  2  0
 12 38  1  0
 13 14  1  0
 13 39  1  0
 14 15  1  0
 14 16  2  0
 16 27  1  0
 16 17  1  0
 17 18  1  0
 18 19  1  6
 18 26  1  0
 19 20  1  0
 19 40  1  0
 19 41  1  0
 20 21  1  0
 20 42  1  0
 20 43  1  0
 21 22  1  0
 21 52  1  6
 22 23  1  0
 22 44  1  0
 22 45  1  0
 23 25  1  0
 23 24  1  0
 23 46  1  0
 24 25  1  0
 24 47  1  0
 24 48  1  0
 25 49  1  0
 25 50  1  0
 26 27  1  0
 26 51  1  1
M  CHG  2  15  -1  21   1
M  END
>  <i_m_ct_stereo_status>  (247) 
1

>  <s_m_source_file>  (247) 
/var/tmp/pbs.5076255.sched01/tmpi2d1958y/88otlks1nw.sdf

>  <i_m_source_file_index>  (247) 
28

>  <i_lp_mmshare_version>  (247) 
48012

>  <i_f3d_flags>  (247) 
0

>  <s_epik_input>  (247) 
W09IXVtDSDJdW0NAQEhdKFtDSDJdMSlDKD1PKVtDQEhdMk9jKGMoW09IXSlbY0hdW2NIXTMpYzRjM1tDSDJdW0NAQEhdKFtDQF0xKFtDQEBdMjQ1KVtPSF0pTihbQ0gyXVtDSDJdNSlbQ0gyXVtDSF02W0NIMl1bQ0gyXTY=

>  <s_epik_cmdline>  (247) 
J2VwaWtfcHl0aG9uJywgJy1waHQnLCAnMi4wJywgJy1waCcsICc3LjAnLCAnLXRuJywgJzgnLCAnLW1hJywgJzIwMCcsICctaW1hZScsICc8aW5maWxlLm1hZT4nLCAnLW9tYWUnLCAnPG91dGZpbGUubWFlPic=

>  <r_epik_Ionization_Penalty>  (247) 
1.92873

>  <r_epik_Ionization_Penalty_Charging>  (247) 
1.92873

>  <r_epik_Ionization_Penalty_Neutral>  (247) 
4.46146e-07

>  <r_epik_State_Penalty>  (247) 
2.04502

>  <r_epik_Charging_Adjusted_Penalty>  (247) 
3.97375

>  <i_epik_Tot_Q>  (247) 
0

>  <i_epik_Tot_abs_Q>  (247) 
2

>  <s_lp_Force_Field>  (247) 
OPLS3e

>  <r_lp_Energy>  (247) 
66.3731

>  <b_lp_Chiralities_Consistent>  (247) 
1

>  <s_lp_Variant>  (247) 
71:0-3

>  <s_i_glide_gridfile>  (247) 
pfpi4k_grid

>  <i_i_glide_lignum>  (247) 
28

>  <i_i_glide_rotatable_bonds>  (247) 
5

>  <r_i_docking_score>  (247) 
-3.97492

>  <r_i_glide_ligand_efficiency>  (247) 
-0.147219

>  <r_i_glide_ligand_efficiency_sa>  (247) 
-0.441658

>  <r_i_glide_ligand_efficiency_ln>  (247) 
-0.925296

>  <r_i_glide_gscore>  (247) 
-3.97492

>  <r_i_glide_lipo>  (247) 
-0.238367

>  <r_i_glide_hbond>  (247) 
-0.152

>  <r_i_glide_metal>  (247) 
-0

>  <r_i_glide_rewards>  (247) 
-0.876635

>  <r_i_glide_evdw>  (247) 
-19.0068

>  <r_i_glide_ecoul>  (247) 
-14.3767

>  <r_i_glide_erotb>  (247) 
0.419759

>  <r_i_glide_esite>  (247) 
-0.0208377

>  <r_i_glide_emodel>  (247) 
-46.3397

>  <r_i_glide_energy>  (247) 
-33.3834

>  <r_i_glide_einternal>  (247) 
1.46412

>  <r_i_glide_intrahb_reward>  (247) 
-0

>  <i_i_glide_confnum>  (247) 
4

>  <i_i_glide_posenum>  (247) 
1

>  <r_i_glide_eff_state_penalty>  (247) 
0

>  <ligand_id>  (247) 
71

>  <original_smiles>  (247) 
O=C1C(CO)CC2(O)C3Cc4ccc(O)c5c4C2(CCN3CC2CC2)C1O5

>  <smiles>  (247) 
[H]OC([H])([H])C1([H])C(=O)C2([H])Oc3c([O-])c([H])c([H])c4c3C23C([H])([H])C([H])([H])[N+]([H])(C([H])([H])C2([H])C([H])([H])C2([H])[H])C([H])(C4([H])[H])C3(O[H])C1([H])[H]

$$$$
72:0:0
     RDKit          3D

 30 33  0  0  1  0  0  0  0  0999 V2000
   -5.3825  -12.7613   -5.9864 N   0  0  0  0  0  0  0  0  0  0  0  0
   -5.3361  -11.3853   -6.1780 C   0  0  0  0  0  0  0  0  0  0  0  0
   -4.3506  -10.6242   -5.5242 C   0  0  0  0  0  0  0  0  0  0  0  0
   -4.3133   -9.2324   -5.6893 C   0  0  0  0  0  0  0  0  0  0  0  0
   -5.2070   -8.6218   -6.5881 C   0  0  0  0  0  0  0  0  0  0  0  0
   -6.2374   -9.3662   -7.2206 C   0  0  0  0  0  0  0  0  0  0  0  0
   -7.2430   -8.7223   -8.0776 C   0  0  0  0  0  0  0  0  0  0  0  0
   -7.6380   -9.3504   -9.1663 N   0  0  0  0  0  0  0  0  0  0  0  0
   -8.7348   -8.3971  -10.0140 S   0  0  0  0  0  0  0  0  0  0  0  0
   -8.7389   -7.0748   -8.8640 C   0  0  0  0  0  0  0  0  0  0  0  0
   -9.4444   -5.8574   -8.8998 C   0  0  0  0  0  0  0  0  0  0  0  0
   -9.3339   -4.9157   -7.9398 N   0  0  0  0  0  0  0  0  0  0  0  0
   -8.5695   -5.1352   -6.8547 C   0  0  0  0  0  0  0  0  0  0  0  0
   -8.4501   -4.1874   -5.8095 C   0  0  0  0  0  0  0  0  0  0  0  0
   -7.6147   -4.4799   -4.7238 C   0  0  0  0  0  0  0  0  0  0  0  0
   -6.9695   -5.7173   -4.7194 C   0  0  0  0  0  0  0  0  0  0  0  0
   -7.1244   -6.6449   -5.6808 N   0  0  0  0  0  0  0  0  0  0  0  0
   -7.8547   -6.3814   -6.7599 C   0  0  0  0  0  0  0  0  0  0  0  0
   -7.8622   -7.4287   -7.8053 C   0  0  0  0  0  0  0  0  0  0  0  0
   -6.2933  -10.7626   -6.9973 C   0  0  0  0  0  0  0  0  0  0  0  0
   -4.7224  -13.2114   -5.3641 H   0  0  0  0  0  0  0  0  0  0  0  0
   -6.1121  -13.3253   -6.3979 H   0  0  0  0  0  0  0  0  0  0  0  0
   -3.6209  -11.0956   -4.8810 H   0  0  0  0  0  0  0  0  0  0  0  0
   -3.5710   -8.6356   -5.1775 H   0  0  0  0  0  0  0  0  0  0  0  0
   -5.0900   -7.5639   -6.7634 H   0  0  0  0  0  0  0  0  0  0  0  0
  -10.0966   -5.6245   -9.7262 H   0  0  0  0  0  0  0  0  0  0  0  0
   -8.9887   -3.2530   -5.8515 H   0  0  0  0  0  0  0  0  0  0  0  0
   -7.4690   -3.8144   -3.8912 H   0  0  0  0  0  0  0  0  0  0  0  0
   -6.3089   -6.0130   -3.9131 H   0  0  0  0  0  0  0  0  0  0  0  0
   -7.0756  -11.3449   -7.4644 H   0  0  0  0  0  0  0  0  0  0  0  0
  1  2  1  0
  1 21  1  0
  1 22  1  0
  2 20  2  0
  2  3  1  0
  3  4  2  0
  3 23  1  0
  4  5  1  0
  4 24  1  0
  5  6  2  0
  5 25  1  0
  6  7  1  0
  6 20  1  0
  7 19  1  0
  7  8  2  0
  8  9  1  0
  9 10  1  0
 10 19  2  0
 10 11  1  0
 11 12  2  0
 11 26  1  0
 12 13  1  0
 13 18  2  0
 13 14  1  0
 14 15  2  0
 14 27  1  0
 15 16  1  0
 15 28  1  0
 16 17  2  0
 16 29  1  0
 17 18  1  0
 18 19  1  0
 20 30  1  0
M  END
>  <i_m_ct_stereo_status>  (248) 
1

>  <s_m_source_file>  (248) 
/var/tmp/pbs.5076255.sched01/tmpi2d1958y/88otlks1nw.sdf

>  <i_m_source_file_index>  (248) 
29

>  <i_lp_mmshare_version>  (248) 
48012

>  <i_f3d_flags>  (248) 
0

>  <s_epik_input>  (248) 
W05IMl1jMVtjSF1bY0hdW2NIXWMoW2NIXTEpLWMobnMyKWMoYzIzKWM0YyhuW2NIXTMpW2NIXVtjSF1bY0hdbjQ=

>  <s_epik_cmdline>  (248) 
J2VwaWtfcHl0aG9uJywgJy1waHQnLCAnMi4wJywgJy1waCcsICc3LjAnLCAnLXRuJywgJzgnLCAnLW1hJywgJzIwMCcsICctaW1hZScsICc8aW5maWxlLm1hZT4nLCAnLW9tYWUnLCAnPG91dGZpbGUubWFlPic=

>  <r_epik_Ionization_Penalty>  (248) 
0.0015846

>  <r_epik_Ionization_Penalty_Charging>  (248) 
0

>  <r_epik_Ionization_Penalty_Neutral>  (248) 
0.0015846

>  <r_epik_State_Penalty>  (248) 
0.00106437

>  <r_epik_Charging_Adjusted_Penalty>  (248) 
0.00106437

>  <i_epik_Tot_Q>  (248) 
0

>  <i_epik_Tot_abs_Q>  (248) 
0

>  <s_lp_Force_Field>  (248) 
OPLS3e

>  <r_lp_Energy>  (248) 
34.2838

>  <b_lp_Chiralities_Consistent>  (248) 
1

>  <s_lp_Variant>  (248) 
72:0-1

>  <s_i_glide_gridfile>  (248) 
pfpi4k_grid

>  <i_i_glide_lignum>  (248) 
29

>  <i_i_glide_rotatable_bonds>  (248) 
1

>  <r_i_docking_score>  (248) 
-7.20674

>  <r_i_glide_ligand_efficiency>  (248) 
-0.360337

>  <r_i_glide_ligand_efficiency_sa>  (248) 
-0.978105

>  <r_i_glide_ligand_efficiency_ln>  (248) 
-1.80361

>  <r_i_glide_gscore>  (248) 
-7.20674

>  <r_i_glide_lipo>  (248) 
-2.83668

>  <r_i_glide_hbond>  (248) 
-0.248567

>  <r_i_glide_metal>  (248) 
-0

>  <r_i_glide_rewards>  (248) 
-2.38032

>  <r_i_glide_evdw>  (248) 
-31.3357

>  <r_i_glide_ecoul>  (248) 
-2.52535

>  <r_i_glide_erotb>  (248) 
0.232663

>  <r_i_glide_esite>  (248) 
-0.0282547

>  <r_i_glide_emodel>  (248) 
-48.1408

>  <r_i_glide_energy>  (248) 
-33.8611

>  <r_i_glide_einternal>  (248) 
1.66377

>  <r_i_glide_intrahb_reward>  (248) 
-0

>  <i_i_glide_confnum>  (248) 
1

>  <i_i_glide_posenum>  (248) 
26

>  <r_i_glide_eff_state_penalty>  (248) 
0

>  <ligand_id>  (248) 
72

>  <original_smiles>  (248) 
Nc1cccc(-c2nsc3cnc4cccnc4c23)c1

>  <smiles>  (248) 
[H]c1nc2c(nc([H])c3snc(-c4c([H])c([H])c([H])c(N([H])[H])c4[H])c32)c([H])c1[H]

$$$$
72:0:1
     RDKit          3D

 30 33  0  0  1  0  0  0  0  0999 V2000
   -3.7378  -10.2212   -5.5256 N   0  0  0  0  0  0  0  0  0  0  0  0
   -4.9240  -10.5860   -6.1715 C   0  0  0  0  0  0  0  0  0  0  0  0
   -5.3847  -11.9089   -6.1149 C   0  0  0  0  0  0  0  0  0  0  0  0
   -6.6106  -12.2558   -6.7215 C   0  0  0  0  0  0  0  0  0  0  0  0
   -7.3829  -11.2674   -7.3714 C   0  0  0  0  0  0  0  0  0  0  0  0
   -6.9099   -9.9329   -7.4574 C   0  0  0  0  0  0  0  0  0  0  0  0
   -7.7292   -8.8986   -8.1190 C   0  0  0  0  0  0  0  0  0  0  0  0
   -8.3545   -9.2184   -9.2337 N   0  0  0  0  0  0  0  0  0  0  0  0
   -9.1722   -7.8767   -9.8345 S   0  0  0  0  0  0  0  0  0  0  0  0
   -8.6900   -6.7886   -8.5471 C   0  0  0  0  0  0  0  0  0  0  0  0
   -8.9870   -5.4253   -8.3749 C   0  0  0  0  0  0  0  0  0  0  0  0
   -8.5411   -4.6959   -7.3317 N   0  0  0  0  0  0  0  0  0  0  0  0
   -7.8093   -5.2707   -6.3657 C   0  0  0  0  0  0  0  0  0  0  0  0
   -7.3336   -4.5401   -5.2504 C   0  0  0  0  0  0  0  0  0  0  0  0
   -6.5591   -5.2001   -4.2949 C   0  0  0  0  0  0  0  0  0  0  0  0
   -6.3149   -6.5656   -4.4915 C   0  0  0  0  0  0  0  0  0  0  0  0
   -6.8086   -7.2755   -5.5247 N   0  0  0  0  0  0  0  0  0  0  0  0
   -7.5043   -6.6727   -6.4833 C   0  0  0  0  0  0  0  0  0  0  0  0
   -7.8975   -7.5270   -7.6306 C   0  0  0  0  0  0  0  0  0  0  0  0
   -5.6515   -9.6208   -6.8898 C   0  0  0  0  0  0  0  0  0  0  0  0
   -3.1746  -10.8901   -5.0398 H   0  0  0  0  0  0  0  0  0  0  0  0
   -3.3730   -9.2776   -5.5441 H   0  0  0  0  0  0  0  0  0  0  0  0
   -4.7986  -12.6541   -5.5936 H   0  0  0  0  0  0  0  0  0  0  0  0
   -6.9636  -13.2738   -6.6878 H   0  0  0  0  0  0  0  0  0  0  0  0
   -8.3394  -11.5271   -7.8075 H   0  0  0  0  0  0  0  0  0  0  0  0
   -9.6010   -4.9128   -9.0988 H   0  0  0  0  0  0  0  0  0  0  0  0
   -7.5636   -3.4923   -5.1230 H   0  0  0  0  0  0  0  0  0  0  0  0
   -6.1858   -4.6987   -3.4097 H   0  0  0  0  0  0  0  0  0  0  0  0
   -5.7280   -7.1554   -3.7973 H   0  0  0  0  0  0  0  0  0  0  0  0
   -5.2430   -8.6263   -6.9567 H   0  0  0  0  0  0  0  0  0  0  0  0
  1  2  1  0
  1 21  1  0
  1 22  1  0
  2 20  2  0
  2  3  1  0
  3  4  2  0
  3 23  1  0
  4  5  1  0
  4 24  1  0
  5  6  2  0
  5 25  1  0
  6  7  1  0
  6 20  1  0
  7 19  1  0
  7  8  2  0
  8  9  1  0
  9 10  1  0
 10 19  2  0
 10 11  1  0
 11 12  2  0
 11 26  1  0
 12 13  1  0
 13 18  2  0
 13 14  1  0
 14 15  2  0
 14 27  1  0
 15 16  1  0
 15 28  1  0
 16 17  2  0
 16 29  1  0
 17 18  1  0
 18 19  1  0
 20 30  1  0
M  END
>  <i_m_ct_stereo_status>  (249) 
1

>  <s_m_source_file>  (249) 
/var/tmp/pbs.5076255.sched01/tmpi2d1958y/88otlks1nw.sdf

>  <i_m_source_file_index>  (249) 
29

>  <i_lp_mmshare_version>  (249) 
48012

>  <i_f3d_flags>  (249) 
0

>  <s_epik_input>  (249) 
W05IMl1jMVtjSF1bY0hdW2NIXWMoW2NIXTEpLWMobnMyKWMoYzIzKWM0YyhuW2NIXTMpW2NIXVtjSF1bY0hdbjQ=

>  <s_epik_cmdline>  (249) 
J2VwaWtfcHl0aG9uJywgJy1waHQnLCAnMi4wJywgJy1waCcsICc3LjAnLCAnLXRuJywgJzgnLCAnLW1hJywgJzIwMCcsICctaW1hZScsICc8aW5maWxlLm1hZT4nLCAnLW9tYWUnLCAnPG91dGZpbGUubWFlPic=

>  <r_epik_Ionization_Penalty>  (249) 
0.0015846

>  <r_epik_Ionization_Penalty_Charging>  (249) 
0

>  <r_epik_Ionization_Penalty_Neutral>  (249) 
0.0015846

>  <r_epik_State_Penalty>  (249) 
0.00106437

>  <r_epik_Charging_Adjusted_Penalty>  (249) 
0.00106437

>  <i_epik_Tot_Q>  (249) 
0

>  <i_epik_Tot_abs_Q>  (249) 
0

>  <s_lp_Force_Field>  (249) 
OPLS3e

>  <r_lp_Energy>  (249) 
34.2838

>  <b_lp_Chiralities_Consistent>  (249) 
1

>  <s_lp_Variant>  (249) 
72:0-1

>  <s_i_glide_gridfile>  (249) 
pfpi4k_grid

>  <i_i_glide_lignum>  (249) 
29

>  <i_i_glide_rotatable_bonds>  (249) 
1

>  <r_i_docking_score>  (249) 
-6.10815

>  <r_i_glide_ligand_efficiency>  (249) 
-0.305408

>  <r_i_glide_ligand_efficiency_sa>  (249) 
-0.829004

>  <r_i_glide_ligand_efficiency_ln>  (249) 
-1.52867

>  <r_i_glide_gscore>  (249) 
-6.10815

>  <r_i_glide_lipo>  (249) 
-2.65852

>  <r_i_glide_hbond>  (249) 
0

>  <r_i_glide_metal>  (249) 
-0

>  <r_i_glide_rewards>  (249) 
-2.04808

>  <r_i_glide_evdw>  (249) 
-31.3276

>  <r_i_glide_ecoul>  (249) 
-0.452233

>  <r_i_glide_erotb>  (249) 
0.232663

>  <r_i_glide_esite>  (249) 
0

>  <r_i_glide_emodel>  (249) 
-43.7951

>  <r_i_glide_energy>  (249) 
-31.7798

>  <r_i_glide_einternal>  (249) 
1.54692

>  <r_i_glide_intrahb_reward>  (249) 
-0

>  <i_i_glide_confnum>  (249) 
1

>  <i_i_glide_posenum>  (249) 
16

>  <r_i_glide_eff_state_penalty>  (249) 
0

>  <ligand_id>  (249) 
72

>  <original_smiles>  (249) 
Nc1cccc(-c2nsc3cnc4cccnc4c23)c1

>  <smiles>  (249) 
[H]c1nc2c(nc([H])c3snc(-c4c([H])c([H])c([H])c(N([H])[H])c4[H])c32)c([H])c1[H]

$$$$
72:0:2
     RDKit          3D

 30 33  0  0  1  0  0  0  0  0999 V2000
   -4.5745   -8.2833   -5.4242 N   0  0  0  0  0  0  0  0  0  0  0  0
   -5.6254   -7.3904   -5.6388 C   0  0  0  0  0  0  0  0  0  0  0  0
   -5.8575   -6.3296   -4.7487 C   0  0  0  0  0  0  0  0  0  0  0  0
   -6.9338   -5.4433   -4.9561 C   0  0  0  0  0  0  0  0  0  0  0  0
   -7.7857   -5.6191   -6.0640 C   0  0  0  0  0  0  0  0  0  0  0  0
   -7.5554   -6.6700   -6.9833 C   0  0  0  0  0  0  0  0  0  0  0  0
   -8.4699   -6.8611   -8.1222 C   0  0  0  0  0  0  0  0  0  0  0  0
   -8.8171   -5.8049   -8.8373 N   0  0  0  0  0  0  0  0  0  0  0  0
   -9.8875   -6.2605  -10.0509 S   0  0  0  0  0  0  0  0  0  0  0  0
   -9.9330   -7.9606   -9.6198 C   0  0  0  0  0  0  0  0  0  0  0  0
  -10.6548   -9.0167  -10.1956 C   0  0  0  0  0  0  0  0  0  0  0  0
  -10.5692  -10.2855   -9.7503 N   0  0  0  0  0  0  0  0  0  0  0  0
   -9.7821  -10.5995   -8.6989 C   0  0  0  0  0  0  0  0  0  0  0  0
   -9.6674  -11.9217   -8.2243 C   0  0  0  0  0  0  0  0  0  0  0  0
   -8.7984  -12.1860   -7.1550 C   0  0  0  0  0  0  0  0  0  0  0  0
   -8.1192  -11.0969   -6.6008 C   0  0  0  0  0  0  0  0  0  0  0  0
   -8.2557   -9.8336   -7.0262 N   0  0  0  0  0  0  0  0  0  0  0  0
   -9.0411   -9.5452   -8.0709 C   0  0  0  0  0  0  0  0  0  0  0  0
   -9.0617   -8.1331   -8.5016 C   0  0  0  0  0  0  0  0  0  0  0  0
   -6.4563   -7.5369   -6.7662 C   0  0  0  0  0  0  0  0  0  0  0  0
   -3.9667   -8.2239   -4.6193 H   0  0  0  0  0  0  0  0  0  0  0  0
   -4.4450   -9.1011   -6.0035 H   0  0  0  0  0  0  0  0  0  0  0  0
   -5.2028   -6.1926   -3.9062 H   0  0  0  0  0  0  0  0  0  0  0  0
   -7.1073   -4.6282   -4.2664 H   0  0  0  0  0  0  0  0  0  0  0  0
   -8.6305   -4.9577   -6.2037 H   0  0  0  0  0  0  0  0  0  0  0  0
  -11.3131   -8.8453  -11.0338 H   0  0  0  0  0  0  0  0  0  0  0  0
  -10.2275  -12.7241   -8.6842 H   0  0  0  0  0  0  0  0  0  0  0  0
   -8.6470  -13.1800   -6.7603 H   0  0  0  0  0  0  0  0  0  0  0  0
   -7.4174  -11.2226   -5.7897 H   0  0  0  0  0  0  0  0  0  0  0  0
   -6.2634   -8.3446   -7.4525 H   0  0  0  0  0  0  0  0  0  0  0  0
  1  2  1  0
  1 21  1  0
  1 22  1  0
  2 20  2  0
  2  3  1  0
  3  4  2  0
  3 23  1  0
  4  5  1  0
  4 24  1  0
  5  6  2  0
  5 25  1  0
  6  7  1  0
  6 20  1  0
  7 19  1  0
  7  8  2  0
  8  9  1  0
  9 10  1  0
 10 19  2  0
 10 11  1  0
 11 12  2  0
 11 26  1  0
 12 13  1  0
 13 18  2  0
 13 14  1  0
 14 15  2  0
 14 27  1  0
 15 16  1  0
 15 28  1  0
 16 17  2  0
 16 29  1  0
 17 18  1  0
 18 19  1  0
 20 30  1  0
M  END
>  <i_m_ct_stereo_status>  (250) 
1

>  <s_m_source_file>  (250) 
/var/tmp/pbs.5076255.sched01/tmpi2d1958y/88otlks1nw.sdf

>  <i_m_source_file_index>  (250) 
29

>  <i_lp_mmshare_version>  (250) 
48012

>  <i_f3d_flags>  (250) 
0

>  <s_epik_input>  (250) 
W05IMl1jMVtjSF1bY0hdW2NIXWMoW2NIXTEpLWMobnMyKWMoYzIzKWM0YyhuW2NIXTMpW2NIXVtjSF1bY0hdbjQ=

>  <s_epik_cmdline>  (250) 
J2VwaWtfcHl0aG9uJywgJy1waHQnLCAnMi4wJywgJy1waCcsICc3LjAnLCAnLXRuJywgJzgnLCAnLW1hJywgJzIwMCcsICctaW1hZScsICc8aW5maWxlLm1hZT4nLCAnLW9tYWUnLCAnPG91dGZpbGUubWFlPic=

>  <r_epik_Ionization_Penalty>  (250) 
0.0015846

>  <r_epik_Ionization_Penalty_Charging>  (250) 
0

>  <r_epik_Ionization_Penalty_Neutral>  (250) 
0.0015846

>  <r_epik_State_Penalty>  (250) 
0.00106437

>  <r_epik_Charging_Adjusted_Penalty>  (250) 
0.00106437

>  <i_epik_Tot_Q>  (250) 
0

>  <i_epik_Tot_abs_Q>  (250) 
0

>  <s_lp_Force_Field>  (250) 
OPLS3e

>  <r_lp_Energy>  (250) 
34.2838

>  <b_lp_Chiralities_Consistent>  (250) 
1

>  <s_lp_Variant>  (250) 
72:0-1

>  <s_i_glide_gridfile>  (250) 
pfpi4k_grid

>  <i_i_glide_lignum>  (250) 
29

>  <i_i_glide_rotatable_bonds>  (250) 
1

>  <r_i_docking_score>  (250) 
-5.50031

>  <r_i_glide_ligand_efficiency>  (250) 
-0.275016

>  <r_i_glide_ligand_efficiency_sa>  (250) 
-0.746507

>  <r_i_glide_ligand_efficiency_ln>  (250) 
-1.37655

>  <r_i_glide_gscore>  (250) 
-5.50031

>  <r_i_glide_lipo>  (250) 
-2.1681

>  <r_i_glide_hbond>  (250) 
0

>  <r_i_glide_metal>  (250) 
-0

>  <r_i_glide_rewards>  (250) 
-2.01137

>  <r_i_glide_evdw>  (250) 
-29.1925

>  <r_i_glide_ecoul>  (250) 
-0.625841

>  <r_i_glide_erotb>  (250) 
0.232663

>  <r_i_glide_esite>  (250) 
0

>  <r_i_glide_emodel>  (250) 
-40.8175

>  <r_i_glide_energy>  (250) 
-29.8183

>  <r_i_glide_einternal>  (250) 
1.19993

>  <r_i_glide_intrahb_reward>  (250) 
-0

>  <i_i_glide_confnum>  (250) 
3

>  <i_i_glide_posenum>  (250) 
12

>  <r_i_glide_eff_state_penalty>  (250) 
0

>  <ligand_id>  (250) 
72

>  <original_smiles>  (250) 
Nc1cccc(-c2nsc3cnc4cccnc4c23)c1

>  <smiles>  (250) 
[H]c1nc2c(nc([H])c3snc(-c4c([H])c([H])c([H])c(N([H])[H])c4[H])c32)c([H])c1[H]

$$$$
73:0:0
     RDKit          3D

 60 65  0  0  1  0  0  0  0  0999 V2000
    1.6780   -6.2533    3.9470 C   0  0  0  0  0  0  0  0  0  0  0  0
    1.0467   -6.2108    2.5498 C   0  0  0  0  0  0  0  0  0  0  0  0
    0.0180   -6.8367    2.3009 O   0  0  0  0  0  0  0  0  0  0  0  0
    1.6793   -5.4337    1.6378 O   0  0  0  0  0  0  0  0  0  0  0  0
    2.6105   -4.4335    2.0304 C   0  0  0  0  0  0  0  0  0  0  0  0
    2.9404   -3.4372    0.8434 C   0  0  2  0  0  0  0  0  0  0  0  0
    3.4370   -3.8648   -0.3189 C   0  0  2  0  0  0  0  0  0  0  0  0
    4.5941   -4.7749    0.2635 C   0  0  0  0  0  0  0  0  0  0  0  0
    5.4498   -3.8515    1.2728 C   0  0  2  0  0  0  0  0  0  0  0  0
    4.8831   -3.0241    2.5260 O   0  0  0  0  0  0  0  0  0  0  0  0
    3.8459   -1.8109    2.6266 C   0  0  1  0  0  0  0  0  0  0  0  0
    4.4412   -0.7672    3.6245 C   0  0  0  0  0  0  0  0  0  0  0  0
    3.7156    0.4959    3.8101 N   0  0  0  0  0  0  0  0  0  0  0  0
    2.3090    0.5481    3.7303 C   0  0  0  0  0  0  0  0  0  0  0  0
    1.7018    1.6448    3.0787 C   0  0  0  0  0  0  0  0  0  0  0  0
    0.3014    1.6669    2.9408 C   0  0  0  0  0  0  0  0  0  0  0  0
   -0.4410    0.5871    3.4437 C   0  0  0  0  0  0  0  0  0  0  0  0
    0.1180   -0.4652    4.0726 N   0  0  0  0  0  0  0  0  0  0  0  0
    1.4618   -0.4705    4.2254 C   0  0  0  0  0  0  0  0  0  0  0  0
    3.0941   -1.1571    1.1416 C   0  0  1  0  0  0  0  0  0  0  0  0
    3.8576   -0.0080    0.8673 C   0  0  0  0  0  0  0  0  0  0  0  0
    4.8206   -0.7236    0.4124 C   0  0  0  0  0  0  0  0  0  0  0  0
    4.4628   -2.2904    0.3919 C   0  0  1  0  0  0  0  0  0  0  0  0
    5.8477   -2.8219    0.2417 C   0  0  1  0  0  0  0  0  0  0  0  0
    7.0776   -2.1214    0.9010 C   0  0  0  0  0  0  0  0  0  0  0  0
    6.1190   -2.9285   -1.3077 C   0  0  0  0  0  0  0  0  0  0  0  0
    4.9299   -2.6003   -2.3085 C   0  0  0  0  0  0  0  0  0  0  0  0
    3.7282   -1.7173   -1.7792 C   0  0  1  0  0  0  0  0  0  0  0  0
    2.6169   -1.9266   -2.6103 O   0  0  0  0  0  0  0  0  0  0  0  0
    3.3829   -2.1801   -0.3294 C   0  0  2  0  0  0  0  0  0  0  0  0
    2.7138   -6.5926    3.8804 H   0  0  0  0  0  0  0  0  0  0  0  0
    1.1431   -6.9321    4.6132 H   0  0  0  0  0  0  0  0  0  0  0  0
    1.6679   -5.2673    4.4139 H   0  0  0  0  0  0  0  0  0  0  0  0
    2.1096   -3.9016    2.8368 H   0  0  0  0  0  0  0  0  0  0  0  0
    3.4779   -4.9156    2.4817 H   0  0  0  0  0  0  0  0  0  0  0  0
    1.8703   -3.1368    0.6735 H   0  0  0  0  0  0  0  0  0  0  0  0
    2.6646   -4.3505   -0.9179 H   0  0  0  0  0  0  0  0  0  0  0  0
    4.2382   -5.6986    0.7244 H   0  0  0  0  0  0  0  0  0  0  0  0
    5.2067   -5.1665   -0.5460 H   0  0  0  0  0  0  0  0  0  0  0  0
    6.3014   -4.4471    1.6236 H   0  0  0  0  0  0  0  0  0  0  0  0
    3.0399   -2.2432    3.1957 H   0  0  0  0  0  0  0  0  0  0  0  0
    4.5700   -1.2390    4.5967 H   0  0  0  0  0  0  0  0  0  0  0  0
    5.4464   -0.5038    3.2922 H   0  0  0  0  0  0  0  0  0  0  0  0
    4.1900    1.2913    3.4080 H   0  0  0  0  0  0  0  0  0  0  0  0
    2.2977    2.4435    2.6596 H   0  0  0  0  0  0  0  0  0  0  0  0
   -0.1887    2.4972    2.4479 H   0  0  0  0  0  0  0  0  0  0  0  0
   -1.5199    0.5651    3.3669 H   0  0  0  0  0  0  0  0  0  0  0  0
    1.8546   -1.3372    4.7350 H   0  0  0  0  0  0  0  0  0  0  0  0
    2.0398   -0.8716    1.2602 H   0  0  0  0  0  0  0  0  0  0  0  0
    3.6642    1.0318    0.9731 H   0  0  0  0  0  0  0  0  0  0  0  0
    5.6800   -0.2594   -0.0422 H   0  0  0  0  0  0  0  0  0  0  0  0
    7.4627   -1.2687    0.3502 H   0  0  0  0  0  0  0  0  0  0  0  0
    7.8914   -2.8439    0.9528 H   0  0  0  0  0  0  0  0  0  0  0  0
    6.8634   -1.7766    1.9097 H   0  0  0  0  0  0  0  0  0  0  0  0
    6.8705   -2.1739   -1.5462 H   0  0  0  0  0  0  0  0  0  0  0  0
    6.6058   -3.8618   -1.5682 H   0  0  0  0  0  0  0  0  0  0  0  0
    5.3442   -2.1224   -3.1958 H   0  0  0  0  0  0  0  0  0  0  0  0
    4.5367   -3.5561   -2.6686 H   0  0  0  0  0  0  0  0  0  0  0  0
    3.9574   -0.6631   -1.8518 H   0  0  0  0  0  0  0  0  0  0  0  0
    1.8642   -1.5495   -2.1611 H   0  0  0  0  0  0  0  0  0  0  0  0
  1  2  1  0
  1 31  1  0
  1 32  1  0
  1 33  1  0
  2  3  2  0
  2  4  1  0
  4  5  1  0
  5  6  1  0
  5 34  1  0
  5 35  1  0
  6 23  1  0
  6  7  1  0
  6 36  1  6
  7 30  1  0
  7  8  1  0
  7 37  1  6
  8  9  1  0
  8 38  1  0
  8 39  1  0
  9 24  1  0
  9 10  1  0
  9 40  1  1
 10 11  1  0
 11 12  1  0
 11 20  1  0
 11 41  1  1
 12 13  1  0
 12 42  1  0
 12 43  1  0
 13 14  1  0
 13 44  1  0
 14 19  1  0
 14 15  2  0
 15 16  1  0
 15 45  1  0
 16 17  2  0
 16 46  1  0
 17 18  1  0
 17 47  1  0
 18 19  2  0
 19 48  1  0
 20 30  1  0
 20 21  1  0
 20 49  1  1
 21 22  2  0
 21 50  1  0
 23 22  1  1
 22 51  1  0
 30 23  1  1
 23 24  1  0
 24 25  1  1
 24 26  1  0
 25 52  1  0
 25 53  1  0
 25 54  1  0
 26 27  1  0
 26 55  1  0
 26 56  1  0
 27 28  1  0
 27 57  1  0
 27 58  1  0
 28 29  1  0
 28 30  1  0
 28 59  1  1
 29 60  1  0
M  END
>  <i_m_ct_stereo_status>  (251) 
1

>  <s_m_source_file>  (251) 
/var/tmp/pbs.5076255.sched01/tmpi2d1958y/88otlks1nw.sdf

>  <i_m_source_file_index>  (251) 
30

>  <i_lp_mmshare_version>  (251) 
48012

>  <i_f3d_flags>  (251) 
0

>  <s_epik_input>  (251) 
W0NIM11DKD1PKU9bQ0gyXVtDQEBIXTFbQ0BASF0oW0NAXTIzW0NAXTE0NSlbQ0gyXVtDQEBIXShbQ0BAXTUoW0NIM10pW0NIMl1bQ0gyXVtDQEhdM1tPSF0pT1tDQEhdKFtDQEhdMltDSF09W0NIXTQpW0NIMl1bTkhdYzZbY0hdW2NIXVtjSF1uW2NIXTY=

>  <s_epik_cmdline>  (251) 
J2VwaWtfcHl0aG9uJywgJy1waHQnLCAnMi4wJywgJy1waCcsICc3LjAnLCAnLXRuJywgJzgnLCAnLW1hJywgJzIwMCcsICctaW1hZScsICc8aW5maWxlLm1hZT4nLCAnLW9tYWUnLCAnPG91dGZpbGUubWFlPic=

>  <r_lp_tautomer_probability>  (251) 
1

>  <r_epik_Ionization_Penalty>  (251) 
0.117282

>  <r_epik_Ionization_Penalty_Charging>  (251) 
0

>  <r_epik_Ionization_Penalty_Neutral>  (251) 
0.117282

>  <r_epik_State_Penalty>  (251) 
0.106871

>  <r_epik_Charging_Adjusted_Penalty>  (251) 
0.106871

>  <i_epik_Tot_Q>  (251) 
0

>  <i_epik_Tot_abs_Q>  (251) 
0

>  <s_epik_Chemistry_Notes>  (251) 
This compound has an ester and may undergo hydrolysis at high or low pH.

>  <s_lp_Force_Field>  (251) 
OPLS3e

>  <r_lp_Energy>  (251) 
548.897

>  <b_lp_Chiralities_Consistent>  (251) 
1

>  <s_lp_Variant>  (251) 
73:0-1

>  <s_i_glide_gridfile>  (251) 
pfpi4k_grid

>  <i_i_glide_lignum>  (251) 
30

>  <i_i_glide_rotatable_bonds>  (251) 
7

>  <r_i_docking_score>  (251) 
-3.07144

>  <r_i_glide_ligand_efficiency>  (251) 
-0.102381

>  <r_i_glide_ligand_efficiency_sa>  (251) 
-0.318123

>  <r_i_glide_ligand_efficiency_ln>  (251) 
-0.697865

>  <r_i_glide_gscore>  (251) 
-3.07144

>  <r_i_glide_lipo>  (251) 
-0.488931

>  <r_i_glide_hbond>  (251) 
-0.403315

>  <r_i_glide_metal>  (251) 
-0

>  <r_i_glide_rewards>  (251) 
-0.610186

>  <r_i_glide_evdw>  (251) 
-26.2337

>  <r_i_glide_ecoul>  (251) 
-5.26145

>  <r_i_glide_erotb>  (251) 
0.584542

>  <r_i_glide_esite>  (251) 
-0.0526472

>  <r_i_glide_emodel>  (251) 
-32.3948

>  <r_i_glide_energy>  (251) 
-31.4952

>  <r_i_glide_einternal>  (251) 
11.2089

>  <r_i_glide_intrahb_reward>  (251) 
-0

>  <i_i_glide_confnum>  (251) 
4

>  <i_i_glide_posenum>  (251) 
35

>  <r_i_glide_eff_state_penalty>  (251) 
0

>  <ligand_id>  (251) 
73

>  <original_smiles>  (251) 
CC(=O)OCC1C2CC3OC(CNc4cccnc4)C4C=CC15C3(C)CCC(O)C425

>  <smiles>  (251) 
[H]OC1([H])C([H])([H])C([H])([H])C2(C([H])([H])[H])C3([H])OC([H])(C([H])([H])N([H])c4c([H])nc([H])c([H])c4[H])C4([H])C([H])=C([H])C25C([H])(C([H])([H])OC(=O)C([H])([H])[H])C([H])(C3([H])[H])C145

$$$$
73:0:1
     RDKit          3D

 60 65  0  0  1  0  0  0  0  0999 V2000
    1.4918   -0.8926    3.4739 C   0  0  0  0  0  0  0  0  0  0  0  0
    0.6466   -2.0300    4.0720 C   0  0  0  0  0  0  0  0  0  0  0  0
   -0.3706   -1.7787    4.7177 O   0  0  0  0  0  0  0  0  0  0  0  0
    1.0761   -3.2959    3.8170 O   0  0  0  0  0  0  0  0  0  0  0  0
    2.2721   -3.5451    3.0925 C   0  0  0  0  0  0  0  0  0  0  0  0
    2.5493   -5.0912    2.9353 C   0  0  2  0  0  0  0  0  0  0  0  0
    2.6089   -5.8989    3.9938 C   0  0  2  0  0  0  0  0  0  0  0  0
    3.5691   -5.0381    4.9011 C   0  0  0  0  0  0  0  0  0  0  0  0
    4.8676   -4.7074    4.0126 C   0  0  2  0  0  0  0  0  0  0  0  0
    4.8674   -3.9989    2.5669 O   0  0  0  0  0  0  0  0  0  0  0  0
    4.2821   -4.4514    1.1482 C   0  0  1  0  0  0  0  0  0  0  0  0
    5.4367   -4.2220    0.1321 C   0  0  0  0  0  0  0  0  0  0  0  0
    4.9876   -4.2443   -1.2617 N   0  0  0  0  0  0  0  0  0  0  0  0
    4.6133   -3.0736   -1.9564 C   0  0  0  0  0  0  0  0  0  0  0  0
    3.8376   -3.2111   -3.1341 C   0  0  0  0  0  0  0  0  0  0  0  0
    3.4384   -2.0562   -3.8380 C   0  0  0  0  0  0  0  0  0  0  0  0
    3.8394   -0.8080   -3.3524 C   0  0  0  0  0  0  0  0  0  0  0  0
    4.6106   -0.6622   -2.2576 N   0  0  0  0  0  0  0  0  0  0  0  0
    4.9678   -1.7635   -1.5663 C   0  0  0  0  0  0  0  0  0  0  0  0
    3.3947   -5.9870    0.9987 C   0  0  1  0  0  0  0  0  0  0  0  0
    4.3648   -6.8806    0.4749 C   0  0  0  0  0  0  0  0  0  0  0  0
    4.9381   -6.9836    1.6266 C   0  0  0  0  0  0  0  0  0  0  0  0
    4.1724   -6.1687    2.7714 C   0  0  1  0  0  0  0  0  0  0  0  0
    5.2673   -6.1431    3.7844 C   0  0  1  0  0  0  0  0  0  0  0  0
    6.7762   -6.0265    3.3806 C   0  0  0  0  0  0  0  0  0  0  0  0
    5.0916   -7.4447    4.6638 C   0  0  0  0  0  0  0  0  0  0  0  0
    3.8267   -8.3704    4.4058 C   0  0  0  0  0  0  0  0  0  0  0  0
    3.0884   -8.2628    3.0057 C   0  0  1  0  0  0  0  0  0  0  0  0
    1.7862   -8.7918    3.1554 O   0  0  0  0  0  0  0  0  0  0  0  0
    3.0144   -6.7538    2.6011 C   0  0  2  0  0  0  0  0  0  0  0  0
    2.5195   -0.9492    3.8333 H   0  0  0  0  0  0  0  0  0  0  0  0
    1.1065    0.0914    3.7389 H   0  0  0  0  0  0  0  0  0  0  0  0
    1.4986   -0.9661    2.3854 H   0  0  0  0  0  0  0  0  0  0  0  0
    2.1403   -3.0769    2.1204 H   0  0  0  0  0  0  0  0  0  0  0  0
    3.0799   -3.0089    3.5791 H   0  0  0  0  0  0  0  0  0  0  0  0
    1.5934   -5.3126    2.3895 H   0  0  0  0  0  0  0  0  0  0  0  0
    1.6105   -6.1086    4.3769 H   0  0  0  0  0  0  0  0  0  0  0  0
    3.1009   -4.1479    5.3163 H   0  0  0  0  0  0  0  0  0  0  0  0
    3.8245   -5.5814    5.8059 H   0  0  0  0  0  0  0  0  0  0  0  0
    5.5772   -4.1787    4.6528 H   0  0  0  0  0  0  0  0  0  0  0  0
    3.5774   -3.6760    0.8633 H   0  0  0  0  0  0  0  0  0  0  0  0
    5.9276   -3.2858    0.3861 H   0  0  0  0  0  0  0  0  0  0  0  0
    6.2264   -4.9682    0.2547 H   0  0  0  0  0  0  0  0  0  0  0  0
    4.5490   -5.0998   -1.5825 H   0  0  0  0  0  0  0  0  0  0  0  0
    3.5457   -4.1827   -3.4972 H   0  0  0  0  0  0  0  0  0  0  0  0
    2.8199   -2.1337   -4.7196 H   0  0  0  0  0  0  0  0  0  0  0  0
    3.5668    0.1055   -3.8596 H   0  0  0  0  0  0  0  0  0  0  0  0
    5.5790   -1.5432   -0.7028 H   0  0  0  0  0  0  0  0  0  0  0  0
    2.5442   -5.9410    0.3033 H   0  0  0  0  0  0  0  0  0  0  0  0
    4.5211   -7.2887   -0.4889 H   0  0  0  0  0  0  0  0  0  0  0  0
    5.7430   -7.6826    1.7718 H   0  0  0  0  0  0  0  0  0  0  0  0
    7.2254   -6.9715    3.0834 H   0  0  0  0  0  0  0  0  0  0  0  0
    7.3412   -5.6921    4.2485 H   0  0  0  0  0  0  0  0  0  0  0  0
    6.9547   -5.3086    2.5830 H   0  0  0  0  0  0  0  0  0  0  0  0
    5.9397   -8.0952    4.4369 H   0  0  0  0  0  0  0  0  0  0  0  0
    5.2185   -7.2368    5.7276 H   0  0  0  0  0  0  0  0  0  0  0  0
    4.1250   -9.4086    4.5741 H   0  0  0  0  0  0  0  0  0  0  0  0
    3.1118   -8.1734    5.2099 H   0  0  0  0  0  0  0  0  0  0  0  0
    3.5854   -8.8901    2.2787 H   0  0  0  0  0  0  0  0  0  0  0  0
    1.8641   -9.7063    3.3762 H   0  0  0  0  0  0  0  0  0  0  0  0
  1  2  1  0
  1 31  1  0
  1 32  1  0
  1 33  1  0
  2  3  2  0
  2  4  1  0
  4  5  1  0
  5  6  1  0
  5 34  1  0
  5 35  1  0
  6 23  1  0
  6  7  1  0
  6 36  1  6
  7 30  1  0
  7  8  1  0
  7 37  1  1
  8  9  1  0
  8 38  1  0
  8 39  1  0
  9 24  1  0
  9 10  1  0
  9 40  1  1
 10 11  1  0
 11 12  1  0
 11 20  1  0
 11 41  1  6
 12 13  1  0
 12 42  1  0
 12 43  1  0
 13 14  1  0
 13 44  1  0
 14 19  1  0
 14 15  2  0
 15 16  1  0
 15 45  1  0
 16 17  2  0
 16 46  1  0
 17 18  1  0
 17 47  1  0
 18 19  2  0
 19 48  1  0
 20 30  1  0
 20 21  1  0
 20 49  1  6
 21 22  2  0
 21 50  1  0
 23 22  1  6
 22 51  1  0
 30 23  1  1
 23 24  1  0
 24 25  1  6
 24 26  1  0
 25 52  1  0
 25 53  1  0
 25 54  1  0
 26 27  1  0
 26 55  1  0
 26 56  1  0
 27 28  1  0
 27 57  1  0
 27 58  1  0
 28 29  1  0
 28 30  1  0
 28 59  1  6
 29 60  1  0
M  END
>  <i_m_ct_stereo_status>  (252) 
1

>  <s_m_source_file>  (252) 
/var/tmp/pbs.5076255.sched01/tmpi2d1958y/88otlks1nw.sdf

>  <i_m_source_file_index>  (252) 
30

>  <i_lp_mmshare_version>  (252) 
48012

>  <i_f3d_flags>  (252) 
0

>  <s_epik_input>  (252) 
W0NIM11DKD1PKU9bQ0gyXVtDQEBIXTFbQ0BASF0oW0NAXTIzW0NAXTE0NSlbQ0gyXVtDQEBIXShbQ0BAXTUoW0NIM10pW0NIMl1bQ0gyXVtDQEhdM1tPSF0pT1tDQEhdKFtDQEhdMltDSF09W0NIXTQpW0NIMl1bTkhdYzZbY0hdW2NIXVtjSF1uW2NIXTY=

>  <s_epik_cmdline>  (252) 
J2VwaWtfcHl0aG9uJywgJy1waHQnLCAnMi4wJywgJy1waCcsICc3LjAnLCAnLXRuJywgJzgnLCAnLW1hJywgJzIwMCcsICctaW1hZScsICc8aW5maWxlLm1hZT4nLCAnLW9tYWUnLCAnPG91dGZpbGUubWFlPic=

>  <r_lp_tautomer_probability>  (252) 
1

>  <r_epik_Ionization_Penalty>  (252) 
0.117282

>  <r_epik_Ionization_Penalty_Charging>  (252) 
0

>  <r_epik_Ionization_Penalty_Neutral>  (252) 
0.117282

>  <r_epik_State_Penalty>  (252) 
0.106871

>  <r_epik_Charging_Adjusted_Penalty>  (252) 
0.106871

>  <i_epik_Tot_Q>  (252) 
0

>  <i_epik_Tot_abs_Q>  (252) 
0

>  <s_epik_Chemistry_Notes>  (252) 
This compound has an ester and may undergo hydrolysis at high or low pH.

>  <s_lp_Force_Field>  (252) 
OPLS3e

>  <r_lp_Energy>  (252) 
548.897

>  <b_lp_Chiralities_Consistent>  (252) 
1

>  <s_lp_Variant>  (252) 
73:0-1

>  <s_i_glide_gridfile>  (252) 
pfpi4k_grid

>  <i_i_glide_lignum>  (252) 
30

>  <i_i_glide_rotatable_bonds>  (252) 
7

>  <r_i_docking_score>  (252) 
-2.7992

>  <r_i_glide_ligand_efficiency>  (252) 
-0.0933066

>  <r_i_glide_ligand_efficiency_sa>  (252) 
-0.289925

>  <r_i_glide_ligand_efficiency_ln>  (252) 
-0.636008

>  <r_i_glide_gscore>  (252) 
-2.7992

>  <r_i_glide_lipo>  (252) 
-0.702673

>  <r_i_glide_hbond>  (252) 
-0.240562

>  <r_i_glide_metal>  (252) 
-0

>  <r_i_glide_rewards>  (252) 
-0.639013

>  <r_i_glide_evdw>  (252) 
-26.7991

>  <r_i_glide_ecoul>  (252) 
-2.96201

>  <r_i_glide_erotb>  (252) 
0.584542

>  <r_i_glide_esite>  (252) 
-0.0172311

>  <r_i_glide_emodel>  (252) 
-32.302

>  <r_i_glide_energy>  (252) 
-29.7612

>  <r_i_glide_einternal>  (252) 
7.15212

>  <r_i_glide_intrahb_reward>  (252) 
-0

>  <i_i_glide_confnum>  (252) 
4

>  <i_i_glide_posenum>  (252) 
3

>  <r_i_glide_eff_state_penalty>  (252) 
0

>  <ligand_id>  (252) 
73

>  <original_smiles>  (252) 
CC(=O)OCC1C2CC3OC(CNc4cccnc4)C4C=CC15C3(C)CCC(O)C425

>  <smiles>  (252) 
[H]OC1([H])C([H])([H])C([H])([H])C2(C([H])([H])[H])C3([H])OC([H])(C([H])([H])N([H])c4c([H])nc([H])c([H])c4[H])C4([H])C([H])=C([H])C25C([H])(C([H])([H])OC(=O)C([H])([H])[H])C([H])(C3([H])[H])C145

$$$$
73:0:2
     RDKit          3D

 60 65  0  0  1  0  0  0  0  0999 V2000
    3.6093    7.7463    5.0714 C   0  0  0  0  0  0  0  0  0  0  0  0
    3.5652    6.3495    4.4655 C   0  0  0  0  0  0  0  0  0  0  0  0
    3.8166    6.1582    3.2786 O   0  0  0  0  0  0  0  0  0  0  0  0
    3.2137    5.4031    5.3561 O   0  0  0  0  0  0  0  0  0  0  0  0
    3.0762    4.0437    4.9553 C   0  0  0  0  0  0  0  0  0  0  0  0
    1.6450    3.7847    4.3085 C   0  0  2  0  0  0  0  0  0  0  0  0
    0.5156    4.1090    4.9483 C   0  0  2  0  0  0  0  0  0  0  0  0
    0.8472    3.4506    6.3463 C   0  0  0  0  0  0  0  0  0  0  0  0
    1.2515    1.9236    6.0507 C   0  0  2  0  0  0  0  0  0  0  0  0
    2.4091    1.4298    5.0471 O   0  0  0  0  0  0  0  0  0  0  0  0
    2.5752    1.5469    3.4578 C   0  0  1  0  0  0  0  0  0  0  0  0
    2.9493    0.1247    2.9675 C   0  0  0  0  0  0  0  0  0  0  0  0
    3.5009    0.0994    1.6156 N   0  0  0  0  0  0  0  0  0  0  0  0
    3.5638   -1.1048    0.8835 C   0  0  0  0  0  0  0  0  0  0  0  0
    4.3062   -1.1280   -0.3156 C   0  0  0  0  0  0  0  0  0  0  0  0
    4.3960   -2.3249   -1.0507 C   0  0  0  0  0  0  0  0  0  0  0  0
    3.7240   -3.4591   -0.5669 C   0  0  0  0  0  0  0  0  0  0  0  0
    2.9994   -3.4596    0.5694 N   0  0  0  0  0  0  0  0  0  0  0  0
    2.9208   -2.3057    1.2706 C   0  0  0  0  0  0  0  0  0  0  0  0
    1.3387    2.3970    2.4981 C   0  0  1  0  0  0  0  0  0  0  0  0
    0.5425    1.3544    1.9613 C   0  0  0  0  0  0  0  0  0  0  0  0
   -0.0458    1.1916    3.0938 C   0  0  0  0  0  0  0  0  0  0  0  0
    0.4376    2.2464    4.2051 C   0  0  1  0  0  0  0  0  0  0  0  0
   -0.0637    1.5333    5.4194 C   0  0  1  0  0  0  0  0  0  0  0  0
   -0.0612   -0.0270    5.5331 C   0  0  0  0  0  0  0  0  0  0  0  0
   -1.5437    2.0409    5.6587 C   0  0  0  0  0  0  0  0  0  0  0  0
   -2.1170    3.1949    4.7266 C   0  0  0  0  0  0  0  0  0  0  0  0
   -1.4191    3.4447    3.3248 C   0  0  1  0  0  0  0  0  0  0  0  0
   -1.7454    4.7483    2.8869 O   0  0  0  0  0  0  0  0  0  0  0  0
    0.1307    3.3111    3.5129 C   0  0  2  0  0  0  0  0  0  0  0  0
    2.6461    7.9908    5.5167 H   0  0  0  0  0  0  0  0  0  0  0  0
    3.8257    8.4807    4.2967 H   0  0  0  0  0  0  0  0  0  0  0  0
    4.3800    7.8104    5.8382 H   0  0  0  0  0  0  0  0  0  0  0  0
    3.8923    3.8192    4.2707 H   0  0  0  0  0  0  0  0  0  0  0  0
    3.2953    3.4337    5.8301 H   0  0  0  0  0  0  0  0  0  0  0  0
    1.7794    4.5135    3.4640 H   0  0  0  0  0  0  0  0  0  0  0  0
    0.3485    5.1831    4.9339 H   0  0  0  0  0  0  0  0  0  0  0  0
    1.6041    3.9883    6.9159 H   0  0  0  0  0  0  0  0  0  0  0  0
   -0.0084    3.5242    7.0126 H   0  0  0  0  0  0  0  0  0  0  0  0
    1.4046    1.4341    7.0163 H   0  0  0  0  0  0  0  0  0  0  0  0
    3.4897    2.1009    3.3011 H   0  0  0  0  0  0  0  0  0  0  0  0
    3.7259   -0.2712    3.6212 H   0  0  0  0  0  0  0  0  0  0  0  0
    2.0854   -0.5307    3.0808 H   0  0  0  0  0  0  0  0  0  0  0  0
    4.0901    0.8710    1.3376 H   0  0  0  0  0  0  0  0  0  0  0  0
    4.8116   -0.2452   -0.6685 H   0  0  0  0  0  0  0  0  0  0  0  0
    4.9652   -2.3735   -1.9672 H   0  0  0  0  0  0  0  0  0  0  0  0
    3.7753   -4.3973   -1.1012 H   0  0  0  0  0  0  0  0  0  0  0  0
    2.3234   -2.3851    2.1645 H   0  0  0  0  0  0  0  0  0  0  0  0
    1.7714    2.9839    1.6779 H   0  0  0  0  0  0  0  0  0  0  0  0
    0.4793    0.9267    0.9847 H   0  0  0  0  0  0  0  0  0  0  0  0
   -0.8791    0.5159    3.1904 H   0  0  0  0  0  0  0  0  0  0  0  0
   -0.9018   -0.5057    5.0348 H   0  0  0  0  0  0  0  0  0  0  0  0
   -0.1377   -0.3000    6.5835 H   0  0  0  0  0  0  0  0  0  0  0  0
    0.8508   -0.4811    5.1495 H   0  0  0  0  0  0  0  0  0  0  0  0
   -2.1932    1.1938    5.4384 H   0  0  0  0  0  0  0  0  0  0  0  0
   -1.7426    2.2462    6.7114 H   0  0  0  0  0  0  0  0  0  0  0  0
   -3.1807    3.0066    4.5611 H   0  0  0  0  0  0  0  0  0  0  0  0
   -2.0994    4.1205    5.3089 H   0  0  0  0  0  0  0  0  0  0  0  0
   -1.8223    2.7692    2.5817 H   0  0  0  0  0  0  0  0  0  0  0  0
   -1.2140    4.8949    2.0982 H   0  0  0  0  0  0  0  0  0  0  0  0
  1  2  1  0
  1 31  1  0
  1 32  1  0
  1 33  1  0
  2  3  2  0
  2  4  1  0
  4  5  1  0
  5  6  1  0
  5 34  1  0
  5 35  1  0
  6 23  1  0
  6  7  1  0
  6 36  1  6
  7 30  1  0
  7  8  1  0
  7 37  1  1
  8  9  1  0
  8 38  1  0
  8 39  1  0
  9 24  1  0
  9 10  1  0
  9 40  1  1
 10 11  1  0
 11 12  1  0
 11 20  1  0
 11 41  1  1
 12 13  1  0
 12 42  1  0
 12 43  1  0
 13 14  1  0
 13 44  1  0
 14 19  1  0
 14 15  2  0
 15 16  1  0
 15 45  1  0
 16 17  2  0
 16 46  1  0
 17 18  1  0
 17 47  1  0
 18 19  2  0
 19 48  1  0
 20 30  1  0
 20 21  1  0
 20 49  1  6
 21 22  2  0
 21 50  1  0
 23 22  1  6
 22 51  1  0
 30 23  1  1
 23 24  1  0
 24 25  1  6
 24 26  1  0
 25 52  1  0
 25 53  1  0
 25 54  1  0
 26 27  1  0
 26 55  1  0
 26 56  1  0
 27 28  1  0
 27 57  1  0
 27 58  1  0
 28 29  1  0
 28 30  1  0
 28 59  1  6
 29 60  1  0
M  END
>  <i_m_ct_stereo_status>  (253) 
1

>  <s_m_source_file>  (253) 
/var/tmp/pbs.5076255.sched01/tmpi2d1958y/88otlks1nw.sdf

>  <i_m_source_file_index>  (253) 
30

>  <i_lp_mmshare_version>  (253) 
48012

>  <i_f3d_flags>  (253) 
0

>  <s_epik_input>  (253) 
W0NIM11DKD1PKU9bQ0gyXVtDQEBIXTFbQ0BASF0oW0NAXTIzW0NAXTE0NSlbQ0gyXVtDQEBIXShbQ0BAXTUoW0NIM10pW0NIMl1bQ0gyXVtDQEhdM1tPSF0pT1tDQEhdKFtDQEhdMltDSF09W0NIXTQpW0NIMl1bTkhdYzZbY0hdW2NIXVtjSF1uW2NIXTY=

>  <s_epik_cmdline>  (253) 
J2VwaWtfcHl0aG9uJywgJy1waHQnLCAnMi4wJywgJy1waCcsICc3LjAnLCAnLXRuJywgJzgnLCAnLW1hJywgJzIwMCcsICctaW1hZScsICc8aW5maWxlLm1hZT4nLCAnLW9tYWUnLCAnPG91dGZpbGUubWFlPic=

>  <r_lp_tautomer_probability>  (253) 
1

>  <r_epik_Ionization_Penalty>  (253) 
0.117282

>  <r_epik_Ionization_Penalty_Charging>  (253) 
0

>  <r_epik_Ionization_Penalty_Neutral>  (253) 
0.117282

>  <r_epik_State_Penalty>  (253) 
0.106871

>  <r_epik_Charging_Adjusted_Penalty>  (253) 
0.106871

>  <i_epik_Tot_Q>  (253) 
0

>  <i_epik_Tot_abs_Q>  (253) 
0

>  <s_epik_Chemistry_Notes>  (253) 
This compound has an ester and may undergo hydrolysis at high or low pH.

>  <s_lp_Force_Field>  (253) 
OPLS3e

>  <r_lp_Energy>  (253) 
548.897

>  <b_lp_Chiralities_Consistent>  (253) 
1

>  <s_lp_Variant>  (253) 
73:0-1

>  <s_i_glide_gridfile>  (253) 
pfpi4k_grid

>  <i_i_glide_lignum>  (253) 
30

>  <i_i_glide_rotatable_bonds>  (253) 
7

>  <r_i_docking_score>  (253) 
-2.78278

>  <r_i_glide_ligand_efficiency>  (253) 
-0.0927592

>  <r_i_glide_ligand_efficiency_sa>  (253) 
-0.288224

>  <r_i_glide_ligand_efficiency_ln>  (253) 
-0.632277

>  <r_i_glide_gscore>  (253) 
-2.78278

>  <r_i_glide_lipo>  (253) 
-0.0463262

>  <r_i_glide_hbond>  (253) 
-0.385435

>  <r_i_glide_metal>  (253) 
-0

>  <r_i_glide_rewards>  (253) 
-0.610186

>  <r_i_glide_evdw>  (253) 
-27.5696

>  <r_i_glide_ecoul>  (253) 
-6.31106

>  <r_i_glide_erotb>  (253) 
0.584542

>  <r_i_glide_esite>  (253) 
-0.000234089

>  <r_i_glide_emodel>  (253) 
-39.4799

>  <r_i_glide_energy>  (253) 
-33.8806

>  <r_i_glide_einternal>  (253) 
1.20869

>  <r_i_glide_intrahb_reward>  (253) 
-0

>  <i_i_glide_confnum>  (253) 
2

>  <i_i_glide_posenum>  (253) 
16

>  <r_i_glide_eff_state_penalty>  (253) 
0

>  <ligand_id>  (253) 
73

>  <original_smiles>  (253) 
CC(=O)OCC1C2CC3OC(CNc4cccnc4)C4C=CC15C3(C)CCC(O)C425

>  <smiles>  (253) 
[H]OC1([H])C([H])([H])C([H])([H])C2(C([H])([H])[H])C3([H])OC([H])(C([H])([H])N([H])c4c([H])nc([H])c([H])c4[H])C4([H])C([H])=C([H])C25C([H])(C([H])([H])OC(=O)C([H])([H])[H])C([H])(C3([H])[H])C145

$$$$
73:1:0
     RDKit          3D

 61 66  0  0  1  0  0  0  0  0999 V2000
    3.8858    7.2121    4.6918 C   0  0  0  0  0  0  0  0  0  0  0  0
    3.5738    5.8605    4.0790 C   0  0  0  0  0  0  0  0  0  0  0  0
    3.4307    5.7392    2.8793 O   0  0  0  0  0  0  0  0  0  0  0  0
    3.4771    4.8737    4.9944 O   0  0  0  0  0  0  0  0  0  0  0  0
    3.1184    3.5430    4.6232 C   0  0  0  0  0  0  0  0  0  0  0  0
    1.5981    3.4348    4.1782 C   0  0  2  0  0  0  0  0  0  0  0  0
    0.6249    3.9962    4.8939 C   0  0  2  0  0  0  0  0  0  0  0  0
    1.0242    3.4359    6.3119 C   0  0  0  0  0  0  0  0  0  0  0  0
    1.1508    1.8432    6.1553 C   0  0  2  0  0  0  0  0  0  0  0  0
    2.0819    1.0701    5.0914 O   0  0  0  0  0  0  0  0  0  0  0  0
    2.0690    1.0185    3.4908 C   0  0  1  0  0  0  0  0  0  0  0  0
    2.1716   -0.4851    3.1169 C   0  0  0  0  0  0  0  0  0  0  0  0
    2.3798   -0.7141    1.6872 N   0  0  0  0  0  0  0  0  0  0  0  0
    3.6184   -1.1054    1.1433 C   0  0  0  0  0  0  0  0  0  0  0  0
    4.8423   -1.0072    1.8496 C   0  0  0  0  0  0  0  0  0  0  0  0
    6.0368   -1.4182    1.2055 C   0  0  0  0  0  0  0  0  0  0  0  0
    5.9779   -1.9229   -0.1037 C   0  0  0  0  0  0  0  0  0  0  0  0
    4.7922   -1.9992   -0.7504 N   0  0  0  0  0  0  0  0  0  0  0  0
    3.6296   -1.6099   -0.1690 C   0  0  0  0  0  0  0  0  0  0  0  0
    0.8669    1.9643    2.5746 C   0  0  1  0  0  0  0  0  0  0  0  0
   -0.1381    1.0196    2.2537 C   0  0  0  0  0  0  0  0  0  0  0  0
   -0.5952    1.0473    3.4634 C   0  0  0  0  0  0  0  0  0  0  0  0
    0.1727    2.1090    4.3850 C   0  0  1  0  0  0  0  0  0  0  0  0
   -0.2765    1.6182    5.7168 C   0  0  1  0  0  0  0  0  0  0  0  0
   -0.5007    0.0972    6.0016 C   0  0  0  0  0  0  0  0  0  0  0  0
   -1.6204    2.3831    6.0454 C   0  0  0  0  0  0  0  0  0  0  0  0
   -2.1086    3.5185    5.0467 C   0  0  0  0  0  0  0  0  0  0  0  0
   -1.5616    3.5087    3.5547 C   0  0  1  0  0  0  0  0  0  0  0  0
   -1.7242    4.8067    3.0086 O   0  0  0  0  0  0  0  0  0  0  0  0
   -0.0427    3.1455    3.6093 C   0  0  2  0  0  0  0  0  0  0  0  0
    3.1767    7.4435    5.4870 H   0  0  0  0  0  0  0  0  0  0  0  0
    3.8038    7.9726    3.9174 H   0  0  0  0  0  0  0  0  0  0  0  0
    4.9012    7.2129    5.0865 H   0  0  0  0  0  0  0  0  0  0  0  0
    3.7929    3.2139    3.8340 H   0  0  0  0  0  0  0  0  0  0  0  0
    3.3763    2.9205    5.4793 H   0  0  0  0  0  0  0  0  0  0  0  0
    1.7323    4.0348    3.2389 H   0  0  0  0  0  0  0  0  0  0  0  0
    0.6292    5.0797    4.7611 H   0  0  0  0  0  0  0  0  0  0  0  0
    1.9249    3.8854    6.7315 H   0  0  0  0  0  0  0  0  0  0  0  0
    0.2809    3.7177    7.0556 H   0  0  0  0  0  0  0  0  0  0  0  0
    1.3443    1.4340    7.1520 H   0  0  0  0  0  0  0  0  0  0  0  0
    3.0365    1.4080    3.1827 H   0  0  0  0  0  0  0  0  0  0  0  0
    2.9577   -0.9333    3.7196 H   0  0  0  0  0  0  0  0  0  0  0  0
    1.2727   -1.0184    3.4358 H   0  0  0  0  0  0  0  0  0  0  0  0
    1.5920   -0.6035    1.0536 H   0  0  0  0  0  0  0  0  0  0  0  0
    4.8972   -0.6160    2.8506 H   0  0  0  0  0  0  0  0  0  0  0  0
    6.9792   -1.3329    1.7244 H   0  0  0  0  0  0  0  0  0  0  0  0
    6.8411   -2.2724   -0.6551 H   0  0  0  0  0  0  0  0  0  0  0  0
    2.7436   -1.7362   -0.7780 H   0  0  0  0  0  0  0  0  0  0  0  0
    1.2613    2.3977    1.6489 H   0  0  0  0  0  0  0  0  0  0  0  0
   -0.3963    0.5378    1.3377 H   0  0  0  0  0  0  0  0  0  0  0  0
   -1.5065    0.5311    3.7122 H   0  0  0  0  0  0  0  0  0  0  0  0
   -1.4599   -0.2755    5.6483 H   0  0  0  0  0  0  0  0  0  0  0  0
   -0.4848   -0.0543    7.0807 H   0  0  0  0  0  0  0  0  0  0  0  0
    0.2799   -0.5297    5.5758 H   0  0  0  0  0  0  0  0  0  0  0  0
   -2.4243    1.6456    6.0084 H   0  0  0  0  0  0  0  0  0  0  0  0
   -1.6503    2.7390    7.0786 H   0  0  0  0  0  0  0  0  0  0  0  0
   -3.1990    3.4920    5.0234 H   0  0  0  0  0  0  0  0  0  0  0  0
   -1.8517    4.4768    5.5032 H   0  0  0  0  0  0  0  0  0  0  0  0
   -2.1461    2.8401    2.9415 H   0  0  0  0  0  0  0  0  0  0  0  0
   -1.2024    4.8367    2.2089 H   0  0  0  0  0  0  0  0  0  0  0  0
    4.7547   -2.3708   -1.6955 H   0  0  0  0  0  0  0  0  0  0  0  0
  1  2  1  0
  1 31  1  0
  1 32  1  0
  1 33  1  0
  2  3  2  0
  2  4  1  0
  4  5  1  0
  5  6  1  0
  5 34  1  0
  5 35  1  0
  6 23  1  0
  6  7  1  0
  6 36  1  6
  7 30  1  0
  7  8  1  0
  7 37  1  1
  8  9  1  0
  8 38  1  0
  8 39  1  0
  9 24  1  0
  9 10  1  0
  9 40  1  1
 10 11  1  0
 11 12  1  0
 11 20  1  0
 11 41  1  6
 12 13  1  0
 12 42  1  0
 12 43  1  0
 13 14  1  0
 13 44  1  0
 14 19  1  0
 14 15  2  0
 15 16  1  0
 15 45  1  0
 16 17  2  0
 16 46  1  0
 17 18  1  0
 17 47  1  0
 18 19  2  0
 18 61  1  0
 19 48  1  0
 20 30  1  0
 20 21  1  0
 20 49  1  6
 21 22  2  0
 21 50  1  0
 23 22  1  6
 22 51  1  0
 30 23  1  1
 23 24  1  0
 24 25  1  6
 24 26  1  0
 25 52  1  0
 25 53  1  0
 25 54  1  0
 26 27  1  0
 26 55  1  0
 26 56  1  0
 27 28  1  0
 27 57  1  0
 27 58  1  0
 28 29  1  0
 28 30  1  0
 28 59  1  6
 29 60  1  0
M  CHG  1  18   1
M  END
>  <i_m_ct_stereo_status>  (254) 
1

>  <s_m_source_file>  (254) 
/var/tmp/pbs.5076255.sched01/tmpi2d1958y/88otlks1nw.sdf

>  <i_m_source_file_index>  (254) 
31

>  <i_lp_mmshare_version>  (254) 
48012

>  <i_f3d_flags>  (254) 
0

>  <s_epik_input>  (254) 
W0NIM11DKD1PKU9bQ0gyXVtDQEBIXTFbQ0BASF0oW0NAXTIzW0NAXTE0NSlbQ0gyXVtDQEBIXShbQ0BAXTUoW0NIM10pW0NIMl1bQ0gyXVtDQEhdM1tPSF0pT1tDQEhdKFtDQEhdMltDSF09W0NIXTQpW0NIMl1bTkhdYzZbY0hdW2NIXVtjSF1uW2NIXTY=

>  <s_epik_cmdline>  (254) 
J2VwaWtfcHl0aG9uJywgJy1waHQnLCAnMi4wJywgJy1waCcsICc3LjAnLCAnLXRuJywgJzgnLCAnLW1hJywgJzIwMCcsICctaW1hZScsICc8aW5maWxlLm1hZT4nLCAnLW9tYWUnLCAnPG91dGZpbGUubWFlPic=

>  <r_lp_tautomer_probability>  (254) 
0.999846

>  <r_epik_Ionization_Penalty>  (254) 
1.01741

>  <r_epik_Ionization_Penalty_Charging>  (254) 
1.01741

>  <r_epik_Ionization_Penalty_Neutral>  (254) 
9.23362e-07

>  <r_epik_State_Penalty>  (254) 
1.06739

>  <r_epik_Charging_Adjusted_Penalty>  (254) 
2.08479

>  <i_epik_Tot_Q>  (254) 
1

>  <i_epik_Tot_abs_Q>  (254) 
1

>  <s_epik_Chemistry_Notes>  (254) 
This compound has an ester and may undergo hydrolysis at high or low pH.

>  <s_lp_Force_Field>  (254) 
OPLS3e

>  <r_lp_Energy>  (254) 
553.916

>  <b_lp_Chiralities_Consistent>  (254) 
1

>  <s_lp_Variant>  (254) 
73:0-2

>  <s_i_glide_gridfile>  (254) 
pfpi4k_grid

>  <i_i_glide_lignum>  (254) 
31

>  <i_i_glide_rotatable_bonds>  (254) 
7

>  <r_i_docking_score>  (254) 
-3.53099

>  <r_i_glide_ligand_efficiency>  (254) 
-0.1177

>  <r_i_glide_ligand_efficiency_sa>  (254) 
-0.36572

>  <r_i_glide_ligand_efficiency_ln>  (254) 
-0.802278

>  <r_i_glide_gscore>  (254) 
-3.53099

>  <r_i_glide_lipo>  (254) 
-0.309271

>  <r_i_glide_hbond>  (254) 
-0.446649

>  <r_i_glide_metal>  (254) 
-0

>  <r_i_glide_rewards>  (254) 
-0.623487

>  <r_i_glide_evdw>  (254) 
-24.9612

>  <r_i_glide_ecoul>  (254) 
-9.31651

>  <r_i_glide_erotb>  (254) 
0.581961

>  <r_i_glide_esite>  (254) 
-0.0880027

>  <r_i_glide_emodel>  (254) 
-41.2589

>  <r_i_glide_energy>  (254) 
-34.2777

>  <r_i_glide_einternal>  (254) 
3.04068

>  <r_i_glide_intrahb_reward>  (254) 
-0

>  <i_i_glide_confnum>  (254) 
1

>  <i_i_glide_posenum>  (254) 
29

>  <r_i_glide_eff_state_penalty>  (254) 
0

>  <ligand_id>  (254) 
73

>  <original_smiles>  (254) 
CC(=O)OCC1C2CC3OC(CNc4cccnc4)C4C=CC15C3(C)CCC(O)C425

>  <smiles>  (254) 
[H]OC1([H])C([H])([H])C([H])([H])C2(C([H])([H])[H])C3([H])OC([H])(C([H])([H])N([H])c4c([H])c([H])c([H])[n+]([H])c4[H])C4([H])C([H])=C([H])C25C([H])(C([H])([H])OC(=O)C([H])([H])[H])C([H])(C3([H])[H])C145

$$$$
73:1:1
     RDKit          3D

 61 66  0  0  1  0  0  0  0  0999 V2000
    3.6406    7.7316    5.0851 C   0  0  0  0  0  0  0  0  0  0  0  0
    3.5775    6.3407    4.4676 C   0  0  0  0  0  0  0  0  0  0  0  0
    3.8219    6.1547    3.2786 O   0  0  0  0  0  0  0  0  0  0  0  0
    3.2228    5.3911    5.3546 O   0  0  0  0  0  0  0  0  0  0  0  0
    3.0776    4.0346    4.9484 C   0  0  0  0  0  0  0  0  0  0  0  0
    1.6418    3.7811    4.3100 C   0  0  2  0  0  0  0  0  0  0  0  0
    0.5171    4.1200    4.9492 C   0  0  2  0  0  0  0  0  0  0  0  0
    0.8489    3.4732    6.3525 C   0  0  0  0  0  0  0  0  0  0  0  0
    1.2393    1.9399    6.0715 C   0  0  2  0  0  0  0  0  0  0  0  0
    2.3887    1.4251    5.0677 O   0  0  0  0  0  0  0  0  0  0  0  0
    2.5506    1.5279    3.4772 C   0  0  1  0  0  0  0  0  0  0  0  0
    2.9163    0.0992    2.9984 C   0  0  0  0  0  0  0  0  0  0  0  0
    3.4444    0.0607    1.6379 N   0  0  0  0  0  0  0  0  0  0  0  0
    3.4430   -1.1287    0.8820 C   0  0  0  0  0  0  0  0  0  0  0  0
    3.0157   -2.3798    1.3997 C   0  0  0  0  0  0  0  0  0  0  0  0
    3.0570   -3.5256    0.5739 C   0  0  0  0  0  0  0  0  0  0  0  0
    3.5129   -3.4083   -0.7518 C   0  0  0  0  0  0  0  0  0  0  0  0
    3.9075   -2.2028   -1.2176 N   0  0  0  0  0  0  0  0  0  0  0  0
    3.8892   -1.0844   -0.4532 C   0  0  0  0  0  0  0  0  0  0  0  0
    1.3174    2.3799    2.5121 C   0  0  1  0  0  0  0  0  0  0  0  0
    0.5105    1.3406    1.9909 C   0  0  0  0  0  0  0  0  0  0  0  0
   -0.0718    1.1894    3.1263 C   0  0  0  0  0  0  0  0  0  0  0  0
    0.4221    2.2512    4.2261 C   0  0  1  0  0  0  0  0  0  0  0  0
   -0.0804    1.5534    5.4488 C   0  0  1  0  0  0  0  0  0  0  0  0
   -0.0893   -0.0059    5.5786 C   0  0  0  0  0  0  0  0  0  0  0  0
   -1.5546    2.0744    5.6879 C   0  0  0  0  0  0  0  0  0  0  0  0
   -2.1240    3.2202    4.7450 C   0  0  0  0  0  0  0  0  0  0  0  0
   -1.4289    3.4531    3.3395 C   0  0  1  0  0  0  0  0  0  0  0  0
   -1.7475    4.7534    2.8893 O   0  0  0  0  0  0  0  0  0  0  0  0
    0.1201    3.3110    3.5242 C   0  0  2  0  0  0  0  0  0  0  0  0
    2.6955    7.9710    5.5703 H   0  0  0  0  0  0  0  0  0  0  0  0
    3.8278    8.4746    4.3113 H   0  0  0  0  0  0  0  0  0  0  0  0
    4.4397    7.7880    5.8230 H   0  0  0  0  0  0  0  0  0  0  0  0
    3.8878    3.8088    4.2565 H   0  0  0  0  0  0  0  0  0  0  0  0
    3.2994    3.4227    5.8202 H   0  0  0  0  0  0  0  0  0  0  0  0
    1.7794    4.4995    3.4571 H   0  0  0  0  0  0  0  0  0  0  0  0
    0.3573    5.1942    4.9232 H   0  0  0  0  0  0  0  0  0  0  0  0
    1.6129    4.0098    6.9125 H   0  0  0  0  0  0  0  0  0  0  0  0
   -0.0041    3.5612    7.0199 H   0  0  0  0  0  0  0  0  0  0  0  0
    1.3928    1.4600    7.0413 H   0  0  0  0  0  0  0  0  0  0  0  0
    3.4690    2.0739    3.3163 H   0  0  0  0  0  0  0  0  0  0  0  0
    3.6993   -0.2909    3.6475 H   0  0  0  0  0  0  0  0  0  0  0  0
    2.0548   -0.5575    3.1228 H   0  0  0  0  0  0  0  0  0  0  0  0
    3.8128    0.9209    1.2564 H   0  0  0  0  0  0  0  0  0  0  0  0
    2.6653   -2.4856    2.4138 H   0  0  0  0  0  0  0  0  0  0  0  0
    2.7464   -4.4869    0.9587 H   0  0  0  0  0  0  0  0  0  0  0  0
    3.5759   -4.2341   -1.4508 H   0  0  0  0  0  0  0  0  0  0  0  0
    4.2258   -0.1852   -0.9453 H   0  0  0  0  0  0  0  0  0  0  0  0
    1.7490    2.9565    1.6812 H   0  0  0  0  0  0  0  0  0  0  0  0
    0.4380    0.9061    1.0172 H   0  0  0  0  0  0  0  0  0  0  0  0
   -0.9084    0.5202    3.2328 H   0  0  0  0  0  0  0  0  0  0  0  0
   -0.9365   -0.4834    5.0900 H   0  0  0  0  0  0  0  0  0  0  0  0
   -0.1635   -0.2669    6.6318 H   0  0  0  0  0  0  0  0  0  0  0  0
    0.8173   -0.4722    5.1969 H   0  0  0  0  0  0  0  0  0  0  0  0
   -2.2107    1.2276    5.4802 H   0  0  0  0  0  0  0  0  0  0  0  0
   -1.7482    2.2917    6.7386 H   0  0  0  0  0  0  0  0  0  0  0  0
   -3.1898    3.0388    4.5867 H   0  0  0  0  0  0  0  0  0  0  0  0
   -2.0967    4.1472    5.3198 H   0  0  0  0  0  0  0  0  0  0  0  0
   -1.8406    2.7725    2.6046 H   0  0  0  0  0  0  0  0  0  0  0  0
   -1.2128    4.8916    2.1003 H   0  0  0  0  0  0  0  0  0  0  0  0
    4.2225   -2.1301   -2.1820 H   0  0  0  0  0  0  0  0  0  0  0  0
  1  2  1  0
  1 31  1  0
  1 32  1  0
  1 33  1  0
  2  3  2  0
  2  4  1  0
  4  5  1  0
  5  6  1  0
  5 34  1  0
  5 35  1  0
  6 23  1  0
  6  7  1  0
  6 36  1  6
  7 30  1  0
  7  8  1  0
  7 37  1  1
  8  9  1  0
  8 38  1  0
  8 39  1  0
  9 24  1  0
  9 10  1  0
  9 40  1  1
 10 11  1  0
 11 12  1  0
 11 20  1  0
 11 41  1  1
 12 13  1  0
 12 42  1  0
 12 43  1  0
 13 14  1  0
 13 44  1  0
 14 19  1  0
 14 15  2  0
 15 16  1  0
 15 45  1  0
 16 17  2  0
 16 46  1  0
 17 18  1  0
 17 47  1  0
 18 19  2  0
 18 61  1  0
 19 48  1  0
 20 30  1  0
 20 21  1  0
 20 49  1  6
 21 22  2  0
 21 50  1  0
 23 22  1  6
 22 51  1  0
 30 23  1  1
 23 24  1  0
 24 25  1  6
 24 26  1  0
 25 52  1  0
 25 53  1  0
 25 54  1  0
 26 27  1  0
 26 55  1  0
 26 56  1  0
 27 28  1  0
 27 57  1  0
 27 58  1  0
 28 29  1  0
 28 30  1  0
 28 59  1  6
 29 60  1  0
M  CHG  1  18   1
M  END
>  <i_m_ct_stereo_status>  (255) 
1

>  <s_m_source_file>  (255) 
/var/tmp/pbs.5076255.sched01/tmpi2d1958y/88otlks1nw.sdf

>  <i_m_source_file_index>  (255) 
31

>  <i_lp_mmshare_version>  (255) 
48012

>  <i_f3d_flags>  (255) 
0

>  <s_epik_input>  (255) 
W0NIM11DKD1PKU9bQ0gyXVtDQEBIXTFbQ0BASF0oW0NAXTIzW0NAXTE0NSlbQ0gyXVtDQEBIXShbQ0BAXTUoW0NIM10pW0NIMl1bQ0gyXVtDQEhdM1tPSF0pT1tDQEhdKFtDQEhdMltDSF09W0NIXTQpW0NIMl1bTkhdYzZbY0hdW2NIXVtjSF1uW2NIXTY=

>  <s_epik_cmdline>  (255) 
J2VwaWtfcHl0aG9uJywgJy1waHQnLCAnMi4wJywgJy1waCcsICc3LjAnLCAnLXRuJywgJzgnLCAnLW1hJywgJzIwMCcsICctaW1hZScsICc8aW5maWxlLm1hZT4nLCAnLW9tYWUnLCAnPG91dGZpbGUubWFlPic=

>  <r_lp_tautomer_probability>  (255) 
0.999846

>  <r_epik_Ionization_Penalty>  (255) 
1.01741

>  <r_epik_Ionization_Penalty_Charging>  (255) 
1.01741

>  <r_epik_Ionization_Penalty_Neutral>  (255) 
9.23362e-07

>  <r_epik_State_Penalty>  (255) 
1.06739

>  <r_epik_Charging_Adjusted_Penalty>  (255) 
2.08479

>  <i_epik_Tot_Q>  (255) 
1

>  <i_epik_Tot_abs_Q>  (255) 
1

>  <s_epik_Chemistry_Notes>  (255) 
This compound has an ester and may undergo hydrolysis at high or low pH.

>  <s_lp_Force_Field>  (255) 
OPLS3e

>  <r_lp_Energy>  (255) 
553.916

>  <b_lp_Chiralities_Consistent>  (255) 
1

>  <s_lp_Variant>  (255) 
73:0-2

>  <s_i_glide_gridfile>  (255) 
pfpi4k_grid

>  <i_i_glide_lignum>  (255) 
31

>  <i_i_glide_rotatable_bonds>  (255) 
7

>  <r_i_docking_score>  (255) 
-3.11849

>  <r_i_glide_ligand_efficiency>  (255) 
-0.10395

>  <r_i_glide_ligand_efficiency_sa>  (255) 
-0.322996

>  <r_i_glide_ligand_efficiency_ln>  (255) 
-0.708555

>  <r_i_glide_gscore>  (255) 
-3.11849

>  <r_i_glide_lipo>  (255) 
-0.0594037

>  <r_i_glide_hbond>  (255) 
-0.32

>  <r_i_glide_metal>  (255) 
-0

>  <r_i_glide_rewards>  (255) 
-0.603314

>  <r_i_glide_evdw>  (255) 
-25.7732

>  <r_i_glide_ecoul>  (255) 
-9.26797

>  <r_i_glide_erotb>  (255) 
0.581961

>  <r_i_glide_esite>  (255) 
-0.0388797

>  <r_i_glide_emodel>  (255) 
-42.1686

>  <r_i_glide_energy>  (255) 
-35.0411

>  <r_i_glide_einternal>  (255) 
1.31981

>  <r_i_glide_intrahb_reward>  (255) 
-0

>  <i_i_glide_confnum>  (255) 
1

>  <i_i_glide_posenum>  (255) 
33

>  <r_i_glide_eff_state_penalty>  (255) 
0

>  <ligand_id>  (255) 
73

>  <original_smiles>  (255) 
CC(=O)OCC1C2CC3OC(CNc4cccnc4)C4C=CC15C3(C)CCC(O)C425

>  <smiles>  (255) 
[H]OC1([H])C([H])([H])C([H])([H])C2(C([H])([H])[H])C3([H])OC([H])(C([H])([H])N([H])c4c([H])c([H])c([H])[n+]([H])c4[H])C4([H])C([H])=C([H])C25C([H])(C([H])([H])OC(=O)C([H])([H])[H])C([H])(C3([H])[H])C145

$$$$
73:1:2
     RDKit          3D

 61 66  0  0  1  0  0  0  0  0999 V2000
    0.2740   -1.5200    4.1429 C   0  0  0  0  0  0  0  0  0  0  0  0
   -0.5500   -2.1588    5.2619 C   0  0  0  0  0  0  0  0  0  0  0  0
   -1.5642   -1.5999    5.6847 O   0  0  0  0  0  0  0  0  0  0  0  0
   -0.1263   -3.3738    5.7091 O   0  0  0  0  0  0  0  0  0  0  0  0
    1.0433   -4.0375    5.2121 C   0  0  0  0  0  0  0  0  0  0  0  0
    0.7267   -5.5393    4.8300 C   0  0  2  0  0  0  0  0  0  0  0  0
    0.2565   -6.4013    5.7318 C   0  0  2  0  0  0  0  0  0  0  0  0
    1.2923   -6.0974    6.8858 C   0  0  0  0  0  0  0  0  0  0  0  0
    2.7632   -6.2203    6.2370 C   0  0  2  0  0  0  0  0  0  0  0  0
    3.2990   -5.4252    4.9408 O   0  0  0  0  0  0  0  0  0  0  0  0
    2.8640   -5.4697    3.3935 C   0  0  1  0  0  0  0  0  0  0  0  0
    4.1831   -5.6091    2.5836 C   0  0  0  0  0  0  0  0  0  0  0  0
    4.0462   -5.2152    1.1805 N   0  0  0  0  0  0  0  0  0  0  0  0
    4.0563   -3.8727    0.7608 C   0  0  0  0  0  0  0  0  0  0  0  0
    4.5906   -2.8134    1.5426 C   0  0  0  0  0  0  0  0  0  0  0  0
    4.5659   -1.4949    1.0378 C   0  0  0  0  0  0  0  0  0  0  0  0
    4.0021   -1.2514   -0.2278 C   0  0  0  0  0  0  0  0  0  0  0  0
    3.4954   -2.2771   -0.9448 N   0  0  0  0  0  0  0  0  0  0  0  0
    3.5127   -3.5538   -0.5044 C   0  0  0  0  0  0  0  0  0  0  0  0
    1.4931   -6.4957    2.8887 C   0  0  1  0  0  0  0  0  0  0  0  0
    2.1263   -7.6451    2.3439 C   0  0  0  0  0  0  0  0  0  0  0  0
    2.3955   -8.0829    3.5258 C   0  0  0  0  0  0  0  0  0  0  0  0
    1.8090   -7.1508    4.6881 C   0  0  1  0  0  0  0  0  0  0  0  0
    2.6238   -7.6633    5.8239 C   0  0  1  0  0  0  0  0  0  0  0  0
    4.1086   -8.1180    5.6506 C   0  0  0  0  0  0  0  0  0  0  0  0
    1.8082   -8.8647    6.4563 C   0  0  0  0  0  0  0  0  0  0  0  0
    0.3581   -9.1807    5.8898 C   0  0  0  0  0  0  0  0  0  0  0  0
   -0.0177   -8.6502    4.4409 C   0  0  1  0  0  0  0  0  0  0  0  0
   -1.4271   -8.6604    4.3098 O   0  0  0  0  0  0  0  0  0  0  0  0
    0.5596   -7.2040    4.2788 C   0  0  2  0  0  0  0  0  0  0  0  0
    1.3120   -1.4201    4.4638 H   0  0  0  0  0  0  0  0  0  0  0  0
   -0.0893   -0.5390    3.8561 H   0  0  0  0  0  0  0  0  0  0  0  0
    0.2327   -2.1670    3.2655 H   0  0  0  0  0  0  0  0  0  0  0  0
    1.4165   -3.5396    4.3320 H   0  0  0  0  0  0  0  0  0  0  0  0
    1.8417   -3.8938    5.9436 H   0  0  0  0  0  0  0  0  0  0  0  0
   -0.1195   -5.2845    4.1352 H   0  0  0  0  0  0  0  0  0  0  0  0
   -0.7957   -6.2244    5.9416 H   0  0  0  0  0  0  0  0  0  0  0  0
    1.1259   -5.1425    7.3844 H   0  0  0  0  0  0  0  0  0  0  0  0
    1.1535   -6.7806    7.7186 H   0  0  0  0  0  0  0  0  0  0  0  0
    3.4892   -6.0789    7.0401 H   0  0  0  0  0  0  0  0  0  0  0  0
    2.5829   -4.4594    3.1245 H   0  0  0  0  0  0  0  0  0  0  0  0
    4.9579   -5.0133    3.0633 H   0  0  0  0  0  0  0  0  0  0  0  0
    4.5680   -6.6288    2.6340 H   0  0  0  0  0  0  0  0  0  0  0  0
    3.8106   -5.9445    0.5205 H   0  0  0  0  0  0  0  0  0  0  0  0
    5.0320   -2.9835    2.5113 H   0  0  0  0  0  0  0  0  0  0  0  0
    4.9697   -0.6792    1.6198 H   0  0  0  0  0  0  0  0  0  0  0  0
    3.9345   -0.2722   -0.6789 H   0  0  0  0  0  0  0  0  0  0  0  0
    3.0728   -4.2793   -1.1732 H   0  0  0  0  0  0  0  0  0  0  0  0
    0.8717   -6.0377    2.1129 H   0  0  0  0  0  0  0  0  0  0  0  0
    2.2914   -7.9881    1.3434 H   0  0  0  0  0  0  0  0  0  0  0  0
    2.8387   -9.0553    3.6678 H   0  0  0  0  0  0  0  0  0  0  0  0
    4.2147   -9.1316    5.2647 H   0  0  0  0  0  0  0  0  0  0  0  0
    4.5909   -8.1224    6.6288 H   0  0  0  0  0  0  0  0  0  0  0  0
    4.6906   -7.4562    5.0095 H   0  0  0  0  0  0  0  0  0  0  0  0
    2.3679   -9.7765    6.2372 H   0  0  0  0  0  0  0  0  0  0  0  0
    1.8089   -8.8333    7.5467 H   0  0  0  0  0  0  0  0  0  0  0  0
    0.2059  -10.2626    5.9195 H   0  0  0  0  0  0  0  0  0  0  0  0
   -0.3667   -8.7964    6.6141 H   0  0  0  0  0  0  0  0  0  0  0  0
    0.3341   -9.3551    3.6887 H   0  0  0  0  0  0  0  0  0  0  0  0
   -1.7479   -9.5490    4.5232 H   0  0  0  0  0  0  0  0  0  0  0  0
    3.0572   -2.0744   -1.8454 H   0  0  0  0  0  0  0  0  0  0  0  0
  1  2  1  0
  1 31  1  0
  1 32  1  0
  1 33  1  0
  2  3  2  0
  2  4  1  0
  4  5  1  0
  5  6  1  0
  5 34  1  0
  5 35  1  0
  6 23  1  0
  6  7  1  0
  6 36  1  6
  7 30  1  0
  7  8  1  0
  7 37  1  1
  8  9  1  0
  8 38  1  0
  8 39  1  0
  9 24  1  0
  9 10  1  0
  9 40  1  1
 10 11  1  0
 11 12  1  0
 11 20  1  0
 11 41  1  6
 12 13  1  0
 12 42  1  0
 12 43  1  0
 13 14  1  0
 13 44  1  0
 14 19  1  0
 14 15  2  0
 15 16  1  0
 15 45  1  0
 16 17  2  0
 16 46  1  0
 17 18  1  0
 17 47  1  0
 18 19  2  0
 18 61  1  0
 19 48  1  0
 20 30  1  0
 20 21  1  0
 20 49  1  6
 21 22  2  0
 21 50  1  0
 23 22  1  6
 22 51  1  0
 30 23  1  1
 23 24  1  0
 24 25  1  6
 24 26  1  0
 25 52  1  0
 25 53  1  0
 25 54  1  0
 26 27  1  0
 26 55  1  0
 26 56  1  0
 27 28  1  0
 27 57  1  0
 27 58  1  0
 28 29  1  0
 28 30  1  0
 28 59  1  6
 29 60  1  0
M  CHG  1  18   1
M  END
>  <i_m_ct_stereo_status>  (256) 
1

>  <s_m_source_file>  (256) 
/var/tmp/pbs.5076255.sched01/tmpi2d1958y/88otlks1nw.sdf

>  <i_m_source_file_index>  (256) 
31

>  <i_lp_mmshare_version>  (256) 
48012

>  <i_f3d_flags>  (256) 
0

>  <s_epik_input>  (256) 
W0NIM11DKD1PKU9bQ0gyXVtDQEBIXTFbQ0BASF0oW0NAXTIzW0NAXTE0NSlbQ0gyXVtDQEBIXShbQ0BAXTUoW0NIM10pW0NIMl1bQ0gyXVtDQEhdM1tPSF0pT1tDQEhdKFtDQEhdMltDSF09W0NIXTQpW0NIMl1bTkhdYzZbY0hdW2NIXVtjSF1uW2NIXTY=

>  <s_epik_cmdline>  (256) 
J2VwaWtfcHl0aG9uJywgJy1waHQnLCAnMi4wJywgJy1waCcsICc3LjAnLCAnLXRuJywgJzgnLCAnLW1hJywgJzIwMCcsICctaW1hZScsICc8aW5maWxlLm1hZT4nLCAnLW9tYWUnLCAnPG91dGZpbGUubWFlPic=

>  <r_lp_tautomer_probability>  (256) 
0.999846

>  <r_epik_Ionization_Penalty>  (256) 
1.01741

>  <r_epik_Ionization_Penalty_Charging>  (256) 
1.01741

>  <r_epik_Ionization_Penalty_Neutral>  (256) 
9.23362e-07

>  <r_epik_State_Penalty>  (256) 
1.06739

>  <r_epik_Charging_Adjusted_Penalty>  (256) 
2.08479

>  <i_epik_Tot_Q>  (256) 
1

>  <i_epik_Tot_abs_Q>  (256) 
1

>  <s_epik_Chemistry_Notes>  (256) 
This compound has an ester and may undergo hydrolysis at high or low pH.

>  <s_lp_Force_Field>  (256) 
OPLS3e

>  <r_lp_Energy>  (256) 
553.916

>  <b_lp_Chiralities_Consistent>  (256) 
1

>  <s_lp_Variant>  (256) 
73:0-2

>  <s_i_glide_gridfile>  (256) 
pfpi4k_grid

>  <i_i_glide_lignum>  (256) 
31

>  <i_i_glide_rotatable_bonds>  (256) 
7

>  <r_i_docking_score>  (256) 
-2.99296

>  <r_i_glide_ligand_efficiency>  (256) 
-0.0997652

>  <r_i_glide_ligand_efficiency_sa>  (256) 
-0.309994

>  <r_i_glide_ligand_efficiency_ln>  (256) 
-0.680032

>  <r_i_glide_gscore>  (256) 
-2.99296

>  <r_i_glide_lipo>  (256) 
-0.0749105

>  <r_i_glide_hbond>  (256) 
-0.16

>  <r_i_glide_metal>  (256) 
-0

>  <r_i_glide_rewards>  (256) 
-0.603314

>  <r_i_glide_evdw>  (256) 
-20.5365

>  <r_i_glide_ecoul>  (256) 
-10.844

>  <r_i_glide_erotb>  (256) 
0.581961

>  <r_i_glide_esite>  (256) 
-0.0832621

>  <r_i_glide_emodel>  (256) 
-34.6767

>  <r_i_glide_energy>  (256) 
-31.3806

>  <r_i_glide_einternal>  (256) 
7.87875

>  <r_i_glide_intrahb_reward>  (256) 
-0

>  <i_i_glide_confnum>  (256) 
2

>  <i_i_glide_posenum>  (256) 
3

>  <r_i_glide_eff_state_penalty>  (256) 
0

>  <ligand_id>  (256) 
73

>  <original_smiles>  (256) 
CC(=O)OCC1C2CC3OC(CNc4cccnc4)C4C=CC15C3(C)CCC(O)C425

>  <smiles>  (256) 
[H]OC1([H])C([H])([H])C([H])([H])C2(C([H])([H])[H])C3([H])OC([H])(C([H])([H])N([H])c4c([H])c([H])c([H])[n+]([H])c4[H])C4([H])C([H])=C([H])C25C([H])(C([H])([H])OC(=O)C([H])([H])[H])C([H])(C3([H])[H])C145

$$$$
74:0:0
     RDKit          3D

 73 80  0  0  1  0  0  0  0  0999 V2000
    0.4694  -10.1628    3.1584 C   0  0  0  0  0  0  0  0  0  0  0  0
    0.4606   -8.8206    2.7092 O   0  0  0  0  0  0  0  0  0  0  0  0
    1.6669   -8.0444    2.7833 C   0  0  2  0  0  0  0  0  0  0  0  0
    2.7032   -8.6541    1.8089 C   0  0  0  0  0  0  0  0  0  0  0  0
    3.5375   -7.4214    1.6101 C   0  0  0  0  0  0  0  0  0  0  0  0
    2.8971   -6.3413    2.6608 C   0  0  2  0  0  0  0  0  0  0  0  0
    2.1941   -5.1348    3.1644 O   0  0  0  0  0  0  0  0  0  0  0  0
    2.5579   -5.5456    4.5100 C   0  0  1  0  0  0  0  0  0  0  0  0
    1.8027   -6.7512    5.1931 C   0  0  1  0  0  0  0  0  0  0  0  0
    2.3735   -6.9093    6.5238 O   0  0  0  0  0  0  0  0  0  0  0  0
    1.9012   -7.9612    7.3955 C   0  0  0  0  0  0  0  0  0  0  0  0
    0.2567   -6.5736    5.4690 C   0  0  2  0  0  0  0  0  0  0  0  0
   -0.6414   -6.2897    4.2617 C   0  0  0  0  0  0  0  0  0  0  0  0
   -0.0798   -5.4951    6.5435 C   0  0  0  0  0  0  0  0  0  0  0  0
    0.1568   -4.1422    6.0527 N   0  0  0  0  0  0  0  0  0  0  0  0
   -0.1487   -3.0344    6.7320 C   0  0  0  0  0  0  0  0  0  0  0  0
   -0.6092   -3.0353    7.8826 O   0  0  0  0  0  0  0  0  0  0  0  0
    0.0523   -1.9431    5.9729 N   0  0  0  0  0  0  0  0  0  0  0  0
   -0.1759   -0.5668    6.2802 C   0  0  0  0  0  0  0  0  0  0  0  0
   -0.1810   -0.0944    7.6181 C   0  0  0  0  0  0  0  0  0  0  0  0
   -0.3585    1.2688    7.8927 C   0  0  0  0  0  0  0  0  0  0  0  0
   -0.5237    2.1791    6.8326 C   0  0  0  0  0  0  0  0  0  0  0  0
   -0.5108    1.7498    5.4902 C   0  0  0  0  0  0  0  0  0  0  0  0
   -0.6617    2.6694    4.5159 N   0  0  0  0  0  0  0  0  0  0  0  0
   -0.6382    2.2767    3.2277 C   0  0  0  0  0  0  0  0  0  0  0  0
   -0.4719    0.9335    2.8492 C   0  0  0  0  0  0  0  0  0  0  0  0
   -0.3170   -0.0382    3.8572 C   0  0  0  0  0  0  0  0  0  0  0  0
   -0.3349    0.3666    5.2153 C   0  0  0  0  0  0  0  0  0  0  0  0
    2.2966   -7.9741    4.3261 C   0  0  2  0  0  0  0  0  0  0  0  0
    3.7010   -7.5548    4.1850 O   0  0  0  0  0  0  0  0  0  0  0  0
    3.7433   -6.1291    3.8079 C   0  0  1  0  0  0  0  0  0  0  0  0
    4.7055   -5.2797    2.8232 C   0  0  0  0  0  0  0  0  0  0  0  0
    4.1292   -4.5791    1.4347 C   0  0  0  0  0  0  0  0  0  0  0  0
    4.9995   -3.5904    0.9054 C   0  0  0  0  0  0  0  0  0  0  0  0
    4.6951   -2.8631   -0.2599 C   0  0  0  0  0  0  0  0  0  0  0  0
    3.4980   -3.0891   -0.9446 C   0  0  0  0  0  0  0  0  0  0  0  0
    2.6027   -4.0727   -0.4806 C   0  0  0  0  0  0  0  0  0  0  0  0
    2.8697   -4.8695    0.6608 C   0  0  0  0  0  0  0  0  0  0  0  0
    1.8629   -5.8996    0.8836 O   0  0  0  0  0  0  0  0  0  0  0  0
    1.5729   -6.5972    2.1588 C   0  0  1  0  0  0  0  0  0  0  0  0
   -0.5579  -10.5287    3.1444 H   0  0  0  0  0  0  0  0  0  0  0  0
    0.8126  -10.3209    4.1764 H   0  0  0  0  0  0  0  0  0  0  0  0
    1.0420  -10.8020    2.4923 H   0  0  0  0  0  0  0  0  0  0  0  0
    3.2719   -9.5098    2.2048 H   0  0  0  0  0  0  0  0  0  0  0  0
    2.2045   -8.9419    0.8816 H   0  0  0  0  0  0  0  0  0  0  0  0
    4.5848   -7.6675    1.8646 H   0  0  0  0  0  0  0  0  0  0  0  0
    3.6101   -7.1789    0.5260 H   0  0  0  0  0  0  0  0  0  0  0  0
    2.8950   -4.7437    5.1859 H   0  0  0  0  0  0  0  0  0  0  0  0
    2.3975   -7.9068    8.3608 H   0  0  0  0  0  0  0  0  0  0  0  0
    2.1006   -8.9376    6.9909 H   0  0  0  0  0  0  0  0  0  0  0  0
    0.8455   -7.9273    7.6452 H   0  0  0  0  0  0  0  0  0  0  0  0
   -0.1102   -7.5336    5.8192 H   0  0  0  0  0  0  0  0  0  0  0  0
   -0.3431   -5.3172    3.8565 H   0  0  0  0  0  0  0  0  0  0  0  0
   -1.7257   -6.2925    4.4828 H   0  0  0  0  0  0  0  0  0  0  0  0
   -0.5420   -7.0798    3.5639 H   0  0  0  0  0  0  0  0  0  0  0  0
   -1.1449   -5.6028    6.7968 H   0  0  0  0  0  0  0  0  0  0  0  0
    0.4765   -5.6509    7.4750 H   0  0  0  0  0  0  0  0  0  0  0  0
    0.5187   -4.0578    5.1151 H   0  0  0  0  0  0  0  0  0  0  0  0
    0.3773   -2.1208    5.0382 H   0  0  0  0  0  0  0  0  0  0  0  0
   -0.0187   -0.7600    8.4488 H   0  0  0  0  0  0  0  0  0  0  0  0
   -0.3506    1.6217    8.9094 H   0  0  0  0  0  0  0  0  0  0  0  0
   -0.6468    3.2321    7.0512 H   0  0  0  0  0  0  0  0  0  0  0  0
   -0.7569    3.0447    2.4718 H   0  0  0  0  0  0  0  0  0  0  0  0
   -0.4617    0.6639    1.7981 H   0  0  0  0  0  0  0  0  0  0  0  0
   -0.1887   -1.0688    3.5648 H   0  0  0  0  0  0  0  0  0  0  0  0
    2.2834   -8.9244    4.8568 H   0  0  0  0  0  0  0  0  0  0  0  0
    5.1184   -4.4817    3.4306 H   0  0  0  0  0  0  0  0  0  0  0  0
    5.5790   -5.8892    2.5545 H   0  0  0  0  0  0  0  0  0  0  0  0
    5.9276   -3.3941    1.4216 H   0  0  0  0  0  0  0  0  0  0  0  0
    5.3736   -2.1270   -0.6084 H   0  0  0  0  0  0  0  0  0  0  0  0
    3.2637   -2.5388   -1.8309 H   0  0  0  0  0  0  0  0  0  0  0  0
    1.6993   -4.2512   -1.0535 H   0  0  0  0  0  0  0  0  0  0  0  0
    0.6208   -6.0646    2.3668 H   0  0  0  0  0  0  0  0  0  0  0  0
  1  2  1  0
  1 41  1  0
  1 42  1  0
  1 43  1  0
  3  2  1  1
  3 29  1  0
  3 40  1  0
  3  4  1  0
  4  5  1  0
  4 44  1  0
  4 45  1  0
  5  6  1  0
  5 46  1  0
  5 47  1  0
  6 31  1  0
  6 40  1  0
  6  7  1  6
  7  8  1  0
  8 31  1  0
  8  9  1  0
  8 48  1  1
  9 10  1  1
  9 12  1  0
  9 29  1  0
 10 11  1  0
 11 49  1  0
 11 50  1  0
 11 51  1  0
 12 13  1  0
 12 14  1  0
 12 52  1  1
 13 53  1  0
 13 54  1  0
 13 55  1  0
 14 15  1  0
 14 56  1  0
 14 57  1  0
 15 16  1  0
 15 58  1  0
 16 17  2  0
 16 18  1  0
 18 19  1  0
 18 59  1  0
 19 28  1  0
 19 20  2  0
 20 21  1  0
 20 60  1  0
 21 22  2  0
 21 61  1  0
 22 23  1  0
 22 62  1  0
 23 28  2  0
 23 24  1  0
 24 25  2  0
 25 26  1  0
 25 63  1  0
 26 27  2  0
 26 64  1  0
 27 28  1  0
 27 65  1  0
 29 30  1  0
 29 66  1  1
 31 30  1  1
 31 32  1  0
 32 33  1  0
 32 67  1  0
 32 68  1  0
 33 38  2  0
 33 34  1  0
 34 35  2  0
 34 69  1  0
 35 36  1  0
 35 70  1  0
 36 37  2  0
 36 71  1  0
 37 38  1  0
 37 72  1  0
 38 39  1  0
 39 40  1  0
 40 73  1  1
M  END
>  <i_m_ct_stereo_status>  (257) 
1

>  <s_m_source_file>  (257) 
/var/tmp/pbs.5076255.sched01/tmpi2d1958y/88otlks1nw.sdf

>  <i_m_source_file_index>  (257) 
32

>  <i_lp_mmshare_version>  (257) 
48012

>  <i_f3d_flags>  (257) 
2

>  <s_epik_input>  (257) 
W2NIXTFbY0hdW2NIXVtjSF1jKFtDSDJdMiljMU9bQ0BIXTNbQ0BAXShPW0NIM10pKFtDSDJdW0NIMl00KVtDQEBIXShPNSlbQ0BdKFtDQEhdKE82KVtDQEBdMjVDMzQ2KShPW0NIM10pW0NASF0oW0NIM10pW0NIMl1bTkhdQyg9TylbTkhdYyhbY0hdW2NIXVtjSF03KWMoYzc4KVtjSF1bY0hdW2NIXW44

>  <s_epik_cmdline>  (257) 
J2VwaWtfcHl0aG9uJywgJy1waHQnLCAnMi4wJywgJy1waCcsICc3LjAnLCAnLXRuJywgJzgnLCAnLW1hJywgJzIwMCcsICctaW1hZScsICc8aW5maWxlLm1hZT4nLCAnLW9tYWUnLCAnPG91dGZpbGUubWFlPic=

>  <r_lp_tautomer_probability>  (257) 
1

>  <r_epik_Ionization_Penalty>  (257) 
0.0160636

>  <r_epik_Ionization_Penalty_Charging>  (257) 
0

>  <r_epik_Ionization_Penalty_Neutral>  (257) 
0.0160636

>  <r_epik_State_Penalty>  (257) 
0.0126265

>  <r_epik_Charging_Adjusted_Penalty>  (257) 
0.0126265

>  <i_epik_Tot_Q>  (257) 
0

>  <i_epik_Tot_abs_Q>  (257) 
0

>  <s_lp_Force_Field>  (257) 
OPLS3e

>  <r_lp_Energy>  (257) 
395.561

>  <b_lp_Chiralities_Consistent>  (257) 
0

>  <s_lp_Variant>  (257) 
74:0-1

>  <s_i_glide_gridfile>  (257) 
pfpi4k_grid

>  <i_i_glide_lignum>  (257) 
32

>  <i_i_glide_rotatable_bonds>  (257) 
8

>  <r_i_docking_score>  (257) 
-1.78608

>  <r_i_glide_ligand_efficiency>  (257) 
-0.044652

>  <r_i_glide_ligand_efficiency_sa>  (257) 
-0.152708

>  <r_i_glide_ligand_efficiency_ln>  (257) 
-0.380918

>  <r_i_glide_gscore>  (257) 
-1.78608

>  <r_i_glide_lipo>  (257) 
-0.130177

>  <r_i_glide_hbond>  (257) 
-0.141173

>  <r_i_glide_metal>  (257) 
-0

>  <r_i_glide_rewards>  (257) 
0

>  <r_i_glide_evdw>  (257) 
-29.3696

>  <r_i_glide_ecoul>  (257) 
-5.49794

>  <r_i_glide_erotb>  (257) 
0.350127

>  <r_i_glide_esite>  (257) 
-0.0557107

>  <r_i_glide_emodel>  (257) 
-29.3645

>  <r_i_glide_energy>  (257) 
-34.8675

>  <r_i_glide_einternal>  (257) 
10.4331

>  <r_i_glide_intrahb_reward>  (257) 
-0

>  <i_i_glide_confnum>  (257) 
1

>  <i_i_glide_posenum>  (257) 
2

>  <r_i_glide_eff_state_penalty>  (257) 
0

>  <ligand_id>  (257) 
74

>  <original_smiles>  (257) 
COC12CCC34OC5C(OC)(C(C)CNC(=O)Nc6cccc7ncccc67)C1OC53Cc1ccccc1OC24

>  <smiles>  (257) 
[H]c1nc2c([H])c([H])c([H])c(N([H])C(=O)N([H])C([H])([H])C([H])(C([H])([H])[H])C3(OC([H])([H])[H])C4([H])OC56C([H])([H])c7c([H])c([H])c([H])c([H])c7OC7([H])C4(OC([H])([H])[H])C([H])([H])C([H])([H])C75OC36[H])c2c([H])c1[H]

$$$$
74:0:1
     RDKit          3D

 73 80  0  0  1  0  0  0  0  0999 V2000
    0.1843   -3.4441    9.1080 C   0  0  0  0  0  0  0  0  0  0  0  0
   -0.1994   -3.7831    7.7740 O   0  0  0  0  0  0  0  0  0  0  0  0
    0.5403   -4.8237    7.1149 C   0  0  2  0  0  0  0  0  0  0  0  0
    0.4014   -6.1613    7.8638 C   0  0  0  0  0  0  0  0  0  0  0  0
    0.6716   -7.1017    6.7079 C   0  0  0  0  0  0  0  0  0  0  0  0
    1.0340   -6.0473    5.4964 C   0  0  2  0  0  0  0  0  0  0  0  0
    0.9946   -5.3883    4.1388 O   0  0  0  0  0  0  0  0  0  0  0  0
    2.3108   -4.8274    4.4578 C   0  0  1  0  0  0  0  0  0  0  0  0
    2.4731   -3.6860    5.5306 C   0  0  1  0  0  0  0  0  0  0  0  0
    3.8338   -3.1986    5.5566 O   0  0  0  0  0  0  0  0  0  0  0  0
    4.9680   -4.0482    5.7048 C   0  0  0  0  0  0  0  0  0  0  0  0
    1.7452   -2.3053    5.2653 C   0  0  2  0  0  0  0  0  0  0  0  0
    0.2461   -2.3616    4.9742 C   0  0  0  0  0  0  0  0  0  0  0  0
    2.3950   -1.4291    4.1639 C   0  0  0  0  0  0  0  0  0  0  0  0
    2.4541   -2.1139    2.8736 N   0  0  0  0  0  0  0  0  0  0  0  0
    3.3378   -1.8160    1.9041 C   0  0  0  0  0  0  0  0  0  0  0  0
    4.1721   -0.9349    1.9847 O   0  0  0  0  0  0  0  0  0  0  0  0
    3.1824   -2.6588    0.8561 N   0  0  0  0  0  0  0  0  0  0  0  0
    3.9454   -2.6451   -0.3473 C   0  0  0  0  0  0  0  0  0  0  0  0
    3.2757   -2.4504   -1.5848 C   0  0  0  0  0  0  0  0  0  0  0  0
    3.9821   -2.4676   -2.7932 C   0  0  0  0  0  0  0  0  0  0  0  0
    5.3632   -2.6856   -2.7718 C   0  0  0  0  0  0  0  0  0  0  0  0
    6.0712   -2.8776   -1.5787 C   0  0  0  0  0  0  0  0  0  0  0  0
    7.4098   -3.0433   -1.6179 N   0  0  0  0  0  0  0  0  0  0  0  0
    8.0805   -3.2620   -0.4920 C   0  0  0  0  0  0  0  0  0  0  0  0
    7.4438   -3.3085    0.7591 C   0  0  0  0  0  0  0  0  0  0  0  0
    6.0682   -3.1127    0.8383 C   0  0  0  0  0  0  0  0  0  0  0  0
    5.3306   -2.8734   -0.3390 C   0  0  0  0  0  0  0  0  0  0  0  0
    2.1353   -4.4244    6.8889 C   0  0  2  0  0  0  0  0  0  0  0  0
    2.8127   -5.7020    6.5671 O   0  0  0  0  0  0  0  0  0  0  0  0
    2.4478   -6.1031    5.2127 C   0  0  1  0  0  0  0  0  0  0  0  0
    2.2048   -7.5511    4.5284 C   0  0  0  0  0  0  0  0  0  0  0  0
    0.7003   -7.9891    3.9548 C   0  0  0  0  0  0  0  0  0  0  0  0
    0.7568   -9.1017    3.0837 C   0  0  0  0  0  0  0  0  0  0  0  0
   -0.4025   -9.6191    2.4858 C   0  0  0  0  0  0  0  0  0  0  0  0
   -1.6502   -9.0477    2.7277 C   0  0  0  0  0  0  0  0  0  0  0  0
   -1.7771   -7.9572    3.5881 C   0  0  0  0  0  0  0  0  0  0  0  0
   -0.6333   -7.4119    4.2531 C   0  0  0  0  0  0  0  0  0  0  0  0
   -1.0093   -6.3479    5.2041 O   0  0  0  0  0  0  0  0  0  0  0  0
   -0.1214   -5.2161    5.7118 C   0  0  1  0  0  0  0  0  0  0  0  0
   -0.4203   -2.5880    9.4327 H   0  0  0  0  0  0  0  0  0  0  0  0
    1.2355   -3.1406    9.2236 H   0  0  0  0  0  0  0  0  0  0  0  0
   -0.0258   -4.2690    9.8021 H   0  0  0  0  0  0  0  0  0  0  0  0
    1.1057   -6.2820    8.6905 H   0  0  0  0  0  0  0  0  0  0  0  0
   -0.6163   -6.2783    8.2292 H   0  0  0  0  0  0  0  0  0  0  0  0
    1.5114   -7.7350    6.9782 H   0  0  0  0  0  0  0  0  0  0  0  0
   -0.1634   -7.7989    6.6064 H   0  0  0  0  0  0  0  0  0  0  0  0
    2.9804   -4.7692    3.6028 H   0  0  0  0  0  0  0  0  0  0  0  0
    5.8825   -3.4677    5.5522 H   0  0  0  0  0  0  0  0  0  0  0  0
    4.9889   -4.8615    4.9802 H   0  0  0  0  0  0  0  0  0  0  0  0
    5.0218   -4.4553    6.7131 H   0  0  0  0  0  0  0  0  0  0  0  0
    1.8256   -1.7363    6.1929 H   0  0  0  0  0  0  0  0  0  0  0  0
    0.0683   -2.9702    4.0659 H   0  0  0  0  0  0  0  0  0  0  0  0
   -0.2654   -1.4154    4.8623 H   0  0  0  0  0  0  0  0  0  0  0  0
   -0.2557   -2.8114    5.8275 H   0  0  0  0  0  0  0  0  0  0  0  0
    1.7985   -0.5280    4.0245 H   0  0  0  0  0  0  0  0  0  0  0  0
    3.3806   -1.0944    4.4902 H   0  0  0  0  0  0  0  0  0  0  0  0
    1.7827   -2.8392    2.7068 H   0  0  0  0  0  0  0  0  0  0  0  0
    2.4856   -3.3650    0.9336 H   0  0  0  0  0  0  0  0  0  0  0  0
    2.2196   -2.2698   -1.6255 H   0  0  0  0  0  0  0  0  0  0  0  0
    3.4694   -2.2953   -3.7277 H   0  0  0  0  0  0  0  0  0  0  0  0
    5.9128   -2.7016   -3.6963 H   0  0  0  0  0  0  0  0  0  0  0  0
    9.1398   -3.4167   -0.5576 H   0  0  0  0  0  0  0  0  0  0  0  0
    8.0395   -3.4761    1.6109 H   0  0  0  0  0  0  0  0  0  0  0  0
    5.5952   -3.1304    1.8104 H   0  0  0  0  0  0  0  0  0  0  0  0
    2.6205   -3.9680    7.7424 H   0  0  0  0  0  0  0  0  0  0  0  0
    2.8916   -7.5922    3.6904 H   0  0  0  0  0  0  0  0  0  0  0  0
    2.5562   -8.3278    5.2089 H   0  0  0  0  0  0  0  0  0  0  0  0
    1.7030   -9.5573    2.8721 H   0  0  0  0  0  0  0  0  0  0  0  0
   -0.3191  -10.4639    1.8291 H   0  0  0  0  0  0  0  0  0  0  0  0
   -2.5335   -9.4607    2.2634 H   0  0  0  0  0  0  0  0  0  0  0  0
   -2.7479   -7.5420    3.7797 H   0  0  0  0  0  0  0  0  0  0  0  0
   -0.5359   -4.4357    5.1053 H   0  0  0  0  0  0  0  0  0  0  0  0
  1  2  1  0
  1 41  1  0
  1 42  1  0
  1 43  1  0
  3  2  1  1
  3 29  1  0
  3 40  1  0
  3  4  1  0
  4  5  1  0
  4 44  1  0
  4 45  1  0
  5  6  1  0
  5 46  1  0
  5 47  1  0
  6 31  1  0
  6 40  1  0
  6  7  1  6
  7  8  1  0
  8 31  1  0
  8  9  1  0
  8 48  1  6
  9 10  1  1
  9 12  1  0
  9 29  1  0
 10 11  1  0
 11 49  1  0
 11 50  1  0
 11 51  1  0
 12 13  1  0
 12 14  1  0
 12 52  1  1
 13 53  1  0
 13 54  1  0
 13 55  1  0
 14 15  1  0
 14 56  1  0
 14 57  1  0
 15 16  1  0
 15 58  1  0
 16 17  2  0
 16 18  1  0
 18 19  1  0
 18 59  1  0
 19 28  1  0
 19 20  2  0
 20 21  1  0
 20 60  1  0
 21 22  2  0
 21 61  1  0
 22 23  1  0
 22 62  1  0
 23 28  2  0
 23 24  1  0
 24 25  2  0
 25 26  1  0
 25 63  1  0
 26 27  2  0
 26 64  1  0
 27 28  1  0
 27 65  1  0
 29 30  1  0
 29 66  1  1
 31 30  1  1
 31 32  1  0
 32 33  1  0
 32 67  1  0
 32 68  1  0
 33 38  2  0
 33 34  1  0
 34 35  2  0
 34 69  1  0
 35 36  1  0
 35 70  1  0
 36 37  2  0
 36 71  1  0
 37 38  1  0
 37 72  1  0
 38 39  1  0
 39 40  1  0
 40 73  1  6
M  END
>  <i_m_ct_stereo_status>  (258) 
1

>  <s_m_source_file>  (258) 
/var/tmp/pbs.5076255.sched01/tmpi2d1958y/88otlks1nw.sdf

>  <i_m_source_file_index>  (258) 
32

>  <i_lp_mmshare_version>  (258) 
48012

>  <i_f3d_flags>  (258) 
2

>  <s_epik_input>  (258) 
W2NIXTFbY0hdW2NIXVtjSF1jKFtDSDJdMiljMU9bQ0BIXTNbQ0BAXShPW0NIM10pKFtDSDJdW0NIMl00KVtDQEBIXShPNSlbQ0BdKFtDQEhdKE82KVtDQEBdMjVDMzQ2KShPW0NIM10pW0NASF0oW0NIM10pW0NIMl1bTkhdQyg9TylbTkhdYyhbY0hdW2NIXVtjSF03KWMoYzc4KVtjSF1bY0hdW2NIXW44

>  <s_epik_cmdline>  (258) 
J2VwaWtfcHl0aG9uJywgJy1waHQnLCAnMi4wJywgJy1waCcsICc3LjAnLCAnLXRuJywgJzgnLCAnLW1hJywgJzIwMCcsICctaW1hZScsICc8aW5maWxlLm1hZT4nLCAnLW9tYWUnLCAnPG91dGZpbGUubWFlPic=

>  <r_lp_tautomer_probability>  (258) 
1

>  <r_epik_Ionization_Penalty>  (258) 
0.0160636

>  <r_epik_Ionization_Penalty_Charging>  (258) 
0

>  <r_epik_Ionization_Penalty_Neutral>  (258) 
0.0160636

>  <r_epik_State_Penalty>  (258) 
0.0126265

>  <r_epik_Charging_Adjusted_Penalty>  (258) 
0.0126265

>  <i_epik_Tot_Q>  (258) 
0

>  <i_epik_Tot_abs_Q>  (258) 
0

>  <s_lp_Force_Field>  (258) 
OPLS3e

>  <r_lp_Energy>  (258) 
395.561

>  <b_lp_Chiralities_Consistent>  (258) 
0

>  <s_lp_Variant>  (258) 
74:0-1

>  <s_i_glide_gridfile>  (258) 
pfpi4k_grid

>  <i_i_glide_lignum>  (258) 
32

>  <i_i_glide_rotatable_bonds>  (258) 
8

>  <r_i_docking_score>  (258) 
-1.3654

>  <r_i_glide_ligand_efficiency>  (258) 
-0.034135

>  <r_i_glide_ligand_efficiency_sa>  (258) 
-0.11674

>  <r_i_glide_ligand_efficiency_ln>  (258) 
-0.2912

>  <r_i_glide_gscore>  (258) 
-1.3654

>  <r_i_glide_lipo>  (258) 
-0.77978

>  <r_i_glide_hbond>  (258) 
0

>  <r_i_glide_metal>  (258) 
-0

>  <r_i_glide_rewards>  (258) 
0

>  <r_i_glide_evdw>  (258) 
-34.8896

>  <r_i_glide_ecoul>  (258) 
-0.921627

>  <r_i_glide_erotb>  (258) 
0.350127

>  <r_i_glide_esite>  (258) 
-0.0392444

>  <r_i_glide_emodel>  (258) 
-26.6512

>  <r_i_glide_energy>  (258) 
-35.8113

>  <r_i_glide_einternal>  (258) 
14.1355

>  <r_i_glide_intrahb_reward>  (258) 
-0

>  <i_i_glide_confnum>  (258) 
1

>  <i_i_glide_posenum>  (258) 
21

>  <r_i_glide_eff_state_penalty>  (258) 
0

>  <ligand_id>  (258) 
74

>  <original_smiles>  (258) 
COC12CCC34OC5C(OC)(C(C)CNC(=O)Nc6cccc7ncccc67)C1OC53Cc1ccccc1OC24

>  <smiles>  (258) 
[H]c1nc2c([H])c([H])c([H])c(N([H])C(=O)N([H])C([H])([H])C([H])(C([H])([H])[H])C3(OC([H])([H])[H])C4([H])OC56C([H])([H])c7c([H])c([H])c([H])c([H])c7OC7([H])C4(OC([H])([H])[H])C([H])([H])C([H])([H])C75OC36[H])c2c([H])c1[H]

$$$$
74:0:2
     RDKit          3D

 73 80  0  0  1  0  0  0  0  0999 V2000
    3.6414   -7.4077    5.0630 C   0  0  0  0  0  0  0  0  0  0  0  0
    3.0660   -6.5874    4.0563 O   0  0  0  0  0  0  0  0  0  0  0  0
    3.7057   -5.3438    3.7250 C   0  0  2  0  0  0  0  0  0  0  0  0
    5.1314   -5.6304    3.1975 C   0  0  0  0  0  0  0  0  0  0  0  0
    5.3188   -4.3736    2.3810 C   0  0  0  0  0  0  0  0  0  0  0  0
    3.9636   -3.5227    2.7468 C   0  0  2  0  0  0  0  0  0  0  0  0
    2.6751   -2.7936    2.5349 O   0  0  0  0  0  0  0  0  0  0  0  0
    2.7950   -2.3121    3.9080 C   0  0  1  0  0  0  0  0  0  0  0  0
    2.5495   -3.2833    5.1142 C   0  0  1  0  0  0  0  0  0  0  0  0
    2.5946   -2.5629    6.3730 O   0  0  0  0  0  0  0  0  0  0  0  0
    3.6952   -1.7473    6.7661 C   0  0  0  0  0  0  0  0  0  0  0  0
    1.0944   -3.9008    5.2705 C   0  0  2  0  0  0  0  0  0  0  0  0
    0.5456   -4.7222    4.0959 C   0  0  0  0  0  0  0  0  0  0  0  0
   -0.0151   -2.8677    5.6466 C   0  0  0  0  0  0  0  0  0  0  0  0
   -0.1529   -1.7981    4.6507 N   0  0  0  0  0  0  0  0  0  0  0  0
   -0.6985   -0.5975    4.8913 C   0  0  0  0  0  0  0  0  0  0  0  0
   -1.2709   -0.3044    5.9377 O   0  0  0  0  0  0  0  0  0  0  0  0
   -0.4978    0.2409    3.8498 N   0  0  0  0  0  0  0  0  0  0  0  0
   -0.5838    1.6518    3.8797 C   0  0  0  0  0  0  0  0  0  0  0  0
   -1.8387    2.2909    3.8303 C   0  0  0  0  0  0  0  0  0  0  0  0
   -1.9434    3.6820    3.7830 C   0  0  0  0  0  0  0  0  0  0  0  0
   -0.7821    4.4783    3.8152 C   0  0  0  0  0  0  0  0  0  0  0  0
    0.4938    3.8781    3.8853 C   0  0  0  0  0  0  0  0  0  0  0  0
    1.5785    4.6985    3.9305 N   0  0  0  0  0  0  0  0  0  0  0  0
    2.8026    4.1460    4.0017 C   0  0  0  0  0  0  0  0  0  0  0  0
    3.0209    2.7656    4.0244 C   0  0  0  0  0  0  0  0  0  0  0  0
    1.8985    1.9051    3.9697 C   0  0  0  0  0  0  0  0  0  0  0  0
    0.6004    2.4692    3.9136 C   0  0  0  0  0  0  0  0  0  0  0  0
    3.7725   -4.2829    5.0136 C   0  0  2  0  0  0  0  0  0  0  0  0
    4.8056   -3.2833    4.6525 O   0  0  0  0  0  0  0  0  0  0  0  0
    4.2571   -2.4031    3.6074 C   0  0  1  0  0  0  0  0  0  0  0  0
    4.9330   -1.6751    2.3243 C   0  0  0  0  0  0  0  0  0  0  0  0
    4.5163   -2.0751    0.7789 C   0  0  0  0  0  0  0  0  0  0  0  0
    4.9140   -1.1298   -0.1869 C   0  0  0  0  0  0  0  0  0  0  0  0
    4.6527   -1.2727   -1.5516 C   0  0  0  0  0  0  0  0  0  0  0  0
    3.9551   -2.3924   -2.0255 C   0  0  0  0  0  0  0  0  0  0  0  0
    3.5338   -3.3948   -1.1207 C   0  0  0  0  0  0  0  0  0  0  0  0
    3.8151   -3.3236    0.2579 C   0  0  0  0  0  0  0  0  0  0  0  0
    3.3957   -4.5186    0.9915 O   0  0  0  0  0  0  0  0  0  0  0  0
    3.0789   -4.6335    2.4547 C   0  0  1  0  0  0  0  0  0  0  0  0
    2.9587   -8.2397    5.2550 H   0  0  0  0  0  0  0  0  0  0  0  0
    3.7958   -6.9235    6.0269 H   0  0  0  0  0  0  0  0  0  0  0  0
    4.5870   -7.8498    4.7436 H   0  0  0  0  0  0  0  0  0  0  0  0
    5.9017   -5.7582    3.9756 H   0  0  0  0  0  0  0  0  0  0  0  0
    5.1153   -6.5064    2.5459 H   0  0  0  0  0  0  0  0  0  0  0  0
    6.2278   -3.8665    2.7292 H   0  0  0  0  0  0  0  0  0  0  0  0
    5.5588   -4.6341    1.3335 H   0  0  0  0  0  0  0  0  0  0  0  0
    2.5066   -1.2677    4.0674 H   0  0  0  0  0  0  0  0  0  0  0  0
    3.4390   -1.2135    7.6831 H   0  0  0  0  0  0  0  0  0  0  0  0
    3.9521   -0.9893    6.0290 H   0  0  0  0  0  0  0  0  0  0  0  0
    4.5735   -2.3473    6.9937 H   0  0  0  0  0  0  0  0  0  0  0  0
    1.1650   -4.5934    6.1090 H   0  0  0  0  0  0  0  0  0  0  0  0
    0.4312   -4.0366    3.2329 H   0  0  0  0  0  0  0  0  0  0  0  0
   -0.4111   -5.2146    4.2999 H   0  0  0  0  0  0  0  0  0  0  0  0
    1.2194   -5.5341    3.8863 H   0  0  0  0  0  0  0  0  0  0  0  0
   -0.9721   -3.3941    5.7040 H   0  0  0  0  0  0  0  0  0  0  0  0
    0.1707   -2.4589    6.6482 H   0  0  0  0  0  0  0  0  0  0  0  0
    0.2423   -1.9824    3.7399 H   0  0  0  0  0  0  0  0  0  0  0  0
   -0.0453   -0.1436    3.0430 H   0  0  0  0  0  0  0  0  0  0  0  0
   -2.7407    1.7098    3.7751 H   0  0  0  0  0  0  0  0  0  0  0  0
   -2.9156    4.1321    3.7095 H   0  0  0  0  0  0  0  0  0  0  0  0
   -0.8469    5.5505    3.7815 H   0  0  0  0  0  0  0  0  0  0  0  0
    3.6372    4.8290    4.0372 H   0  0  0  0  0  0  0  0  0  0  0  0
    4.0213    2.3556    4.0804 H   0  0  0  0  0  0  0  0  0  0  0  0
    2.0444    0.8414    3.9882 H   0  0  0  0  0  0  0  0  0  0  0  0
    4.0238   -4.7306    5.9748 H   0  0  0  0  0  0  0  0  0  0  0  0
    4.7222   -0.6139    2.4413 H   0  0  0  0  0  0  0  0  0  0  0  0
    6.0259   -1.7443    2.4104 H   0  0  0  0  0  0  0  0  0  0  0  0
    5.4477   -0.2510    0.1598 H   0  0  0  0  0  0  0  0  0  0  0  0
    4.9578   -0.5212   -2.2316 H   0  0  0  0  0  0  0  0  0  0  0  0
    3.7403   -2.5068   -3.0653 H   0  0  0  0  0  0  0  0  0  0  0  0
    3.0058   -4.2969   -1.5145 H   0  0  0  0  0  0  0  0  0  0  0  0
    1.9999   -4.6857    2.3796 H   0  0  0  0  0  0  0  0  0  0  0  0
  1  2  1  0
  1 41  1  0
  1 42  1  0
  1 43  1  0
  3  2  1  1
  3 29  1  0
  3 40  1  0
  3  4  1  0
  4  5  1  0
  4 44  1  0
  4 45  1  0
  5  6  1  0
  5 46  1  0
  5 47  1  0
  6 31  1  0
  6 40  1  0
  6  7  1  6
  7  8  1  0
  8 31  1  0
  8  9  1  0
  8 48  1  6
  9 10  1  1
  9 12  1  0
  9 29  1  0
 10 11  1  0
 11 49  1  0
 11 50  1  0
 11 51  1  0
 12 13  1  0
 12 14  1  0
 12 52  1  1
 13 53  1  0
 13 54  1  0
 13 55  1  0
 14 15  1  0
 14 56  1  0
 14 57  1  0
 15 16  1  0
 15 58  1  0
 16 17  2  0
 16 18  1  0
 18 19  1  0
 18 59  1  0
 19 28  1  0
 19 20  2  0
 20 21  1  0
 20 60  1  0
 21 22  2  0
 21 61  1  0
 22 23  1  0
 22 62  1  0
 23 28  2  0
 23 24  1  0
 24 25  2  0
 25 26  1  0
 25 63  1  0
 26 27  2  0
 26 64  1  0
 27 28  1  0
 27 65  1  0
 29 30  1  0
 29 66  1  1
 31 30  1  1
 31 32  1  0
 32 33  1  0
 32 67  1  0
 32 68  1  0
 33 38  2  0
 33 34  1  0
 34 35  2  0
 34 69  1  0
 35 36  1  0
 35 70  1  0
 36 37  2  0
 36 71  1  0
 37 38  1  0
 37 72  1  0
 38 39  1  0
 39 40  1  0
 40 73  1  6
M  END
>  <i_m_ct_stereo_status>  (259) 
1

>  <s_m_source_file>  (259) 
/var/tmp/pbs.5076255.sched01/tmpi2d1958y/88otlks1nw.sdf

>  <i_m_source_file_index>  (259) 
32

>  <i_lp_mmshare_version>  (259) 
48012

>  <i_f3d_flags>  (259) 
2

>  <s_epik_input>  (259) 
W2NIXTFbY0hdW2NIXVtjSF1jKFtDSDJdMiljMU9bQ0BIXTNbQ0BAXShPW0NIM10pKFtDSDJdW0NIMl00KVtDQEBIXShPNSlbQ0BdKFtDQEhdKE82KVtDQEBdMjVDMzQ2KShPW0NIM10pW0NASF0oW0NIM10pW0NIMl1bTkhdQyg9TylbTkhdYyhbY0hdW2NIXVtjSF03KWMoYzc4KVtjSF1bY0hdW2NIXW44

>  <s_epik_cmdline>  (259) 
J2VwaWtfcHl0aG9uJywgJy1waHQnLCAnMi4wJywgJy1waCcsICc3LjAnLCAnLXRuJywgJzgnLCAnLW1hJywgJzIwMCcsICctaW1hZScsICc8aW5maWxlLm1hZT4nLCAnLW9tYWUnLCAnPG91dGZpbGUubWFlPic=

>  <r_lp_tautomer_probability>  (259) 
1

>  <r_epik_Ionization_Penalty>  (259) 
0.0160636

>  <r_epik_Ionization_Penalty_Charging>  (259) 
0

>  <r_epik_Ionization_Penalty_Neutral>  (259) 
0.0160636

>  <r_epik_State_Penalty>  (259) 
0.0126265

>  <r_epik_Charging_Adjusted_Penalty>  (259) 
0.0126265

>  <i_epik_Tot_Q>  (259) 
0

>  <i_epik_Tot_abs_Q>  (259) 
0

>  <s_lp_Force_Field>  (259) 
OPLS3e

>  <r_lp_Energy>  (259) 
395.561

>  <b_lp_Chiralities_Consistent>  (259) 
0

>  <s_lp_Variant>  (259) 
74:0-1

>  <s_i_glide_gridfile>  (259) 
pfpi4k_grid

>  <i_i_glide_lignum>  (259) 
32

>  <i_i_glide_rotatable_bonds>  (259) 
8

>  <r_i_docking_score>  (259) 
-1.13271

>  <r_i_glide_ligand_efficiency>  (259) 
-0.0283179

>  <r_i_glide_ligand_efficiency_sa>  (259) 
-0.0968458

>  <r_i_glide_ligand_efficiency_ln>  (259) 
-0.241575

>  <r_i_glide_gscore>  (259) 
-1.13271

>  <r_i_glide_lipo>  (259) 
-0.167798

>  <r_i_glide_hbond>  (259) 
-0.0384904

>  <r_i_glide_metal>  (259) 
-0

>  <r_i_glide_rewards>  (259) 
0

>  <r_i_glide_evdw>  (259) 
-30.9605

>  <r_i_glide_ecoul>  (259) 
-3.8262

>  <r_i_glide_erotb>  (259) 
0.350127

>  <r_i_glide_esite>  (259) 
-0.0550063

>  <r_i_glide_emodel>  (259) 
-24.3826

>  <r_i_glide_energy>  (259) 
-34.7867

>  <r_i_glide_einternal>  (259) 
15.7246

>  <r_i_glide_intrahb_reward>  (259) 
-0

>  <i_i_glide_confnum>  (259) 
1

>  <i_i_glide_posenum>  (259) 
8

>  <r_i_glide_eff_state_penalty>  (259) 
0

>  <ligand_id>  (259) 
74

>  <original_smiles>  (259) 
COC12CCC34OC5C(OC)(C(C)CNC(=O)Nc6cccc7ncccc67)C1OC53Cc1ccccc1OC24

>  <smiles>  (259) 
[H]c1nc2c([H])c([H])c([H])c(N([H])C(=O)N([H])C([H])([H])C([H])(C([H])([H])[H])C3(OC([H])([H])[H])C4([H])OC56C([H])([H])c7c([H])c([H])c([H])c([H])c7OC7([H])C4(OC([H])([H])[H])C([H])([H])C([H])([H])C75OC36[H])c2c([H])c1[H]

$$$$
75:0:0
     RDKit          3D

 24 26  0  0  1  0  0  0  0  0999 V2000
   -6.6849   -4.6062   -4.0649 C   0  0  0  0  0  0  0  0  0  0  0  0
   -7.0704   -5.4290   -5.2509 C   0  0  0  0  0  0  0  0  0  0  0  0
   -8.3159   -5.4046   -5.8138 N   0  0  0  0  0  0  0  0  0  0  0  0
   -8.2251   -6.2912   -6.7590 C   0  0  0  0  0  0  0  0  0  0  0  0
   -9.1833   -7.0597   -8.0203 S   0  0  0  0  0  0  0  0  0  0  0  0
   -7.7775   -8.0763   -8.4516 C   0  0  0  0  0  0  0  0  0  0  0  0
   -6.6614   -7.7802   -7.6183 C   0  0  0  0  0  0  0  0  0  0  0  0
   -5.3511   -8.5173   -7.7770 C   0  0  0  0  0  0  0  0  0  0  0  0
   -5.0325   -9.4139   -6.5864 C   0  0  0  0  0  0  0  0  0  0  0  0
   -5.9487  -10.5680   -6.2516 C   0  0  0  0  0  0  0  0  0  0  0  0
   -5.8404   -9.4032   -5.3038 C   0  0  0  0  0  0  0  0  0  0  0  0
   -6.9791   -6.8052   -6.7519 N   0  0  0  0  0  0  0  0  0  0  0  0
   -6.1904   -6.2639   -5.7947 N   0  0  0  0  0  0  0  0  0  0  0  0
   -7.5720   -4.1728   -3.6273 H   0  0  0  0  0  0  0  0  0  0  0  0
   -6.0101   -3.8045   -4.3656 H   0  0  0  0  0  0  0  0  0  0  0  0
   -6.2384   -5.2223   -3.2836 H   0  0  0  0  0  0  0  0  0  0  0  0
   -7.8137   -8.8503   -9.2079 H   0  0  0  0  0  0  0  0  0  0  0  0
   -5.3506   -9.0961   -8.7008 H   0  0  0  0  0  0  0  0  0  0  0  0
   -4.5713   -7.7634   -7.8810 H   0  0  0  0  0  0  0  0  0  0  0  0
   -3.9747   -9.6492   -6.4832 H   0  0  0  0  0  0  0  0  0  0  0  0
   -6.8564  -10.6535   -6.8478 H   0  0  0  0  0  0  0  0  0  0  0  0
   -5.5243  -11.5129   -5.9060 H   0  0  0  0  0  0  0  0  0  0  0  0
   -5.2347   -9.5315   -4.3985 H   0  0  0  0  0  0  0  0  0  0  0  0
   -6.7491   -8.8022   -5.2231 H   0  0  0  0  0  0  0  0  0  0  0  0
  1  2  1  0
  1 14  1  0
  1 15  1  0
  1 16  1  0
  2 13  2  0
  2  3  1  0
  3  4  2  0
  4 12  1  0
  4  5  1  0
  5  6  1  0
  6  7  2  0
  6 17  1  0
  7  8  1  0
  7 12  1  0
  8  9  1  0
  8 18  1  0
  8 19  1  0
  9 11  1  0
  9 10  1  0
  9 20  1  0
 10 11  1  0
 10 21  1  0
 10 22  1  0
 11 23  1  0
 11 24  1  0
 12 13  1  0
M  END
>  <i_m_ct_stereo_status>  (260) 
1

>  <s_m_source_file>  (260) 
/var/tmp/pbs.5076255.sched01/tmpi2d1958y/88otlks1nw.sdf

>  <i_m_source_file_index>  (260) 
34

>  <i_lp_mmshare_version>  (260) 
48012

>  <i_f3d_flags>  (260) 
0

>  <s_epik_input>  (260) 
W0NIM11jKG4xKW5uKGMxMiljKFtjSF1zMilbQ0gyXVtDSF0zW0NIMl1bQ0gyXTM=

>  <s_epik_cmdline>  (260) 
J2VwaWtfcHl0aG9uJywgJy1waHQnLCAnMi4wJywgJy1waCcsICc3LjAnLCAnLXRuJywgJzgnLCAnLW1hJywgJzIwMCcsICctaW1hZScsICc8aW5maWxlLm1hZT4nLCAnLW9tYWUnLCAnPG91dGZpbGUubWFlPic=

>  <r_epik_Ionization_Penalty>  (260) 
0.00152036

>  <r_epik_Ionization_Penalty_Charging>  (260) 
0

>  <r_epik_Ionization_Penalty_Neutral>  (260) 
0.00152036

>  <r_epik_State_Penalty>  (260) 
0.00101948

>  <r_epik_Charging_Adjusted_Penalty>  (260) 
0.00101948

>  <i_epik_Tot_Q>  (260) 
0

>  <i_epik_Tot_abs_Q>  (260) 
0

>  <s_lp_Force_Field>  (260) 
OPLS3e

>  <r_lp_Energy>  (260) 
-0.728388

>  <b_lp_Chiralities_Consistent>  (260) 
1

>  <s_lp_Variant>  (260) 
75:0-1

>  <s_i_glide_gridfile>  (260) 
pfpi4k_grid

>  <i_i_glide_lignum>  (260) 
34

>  <i_i_glide_rotatable_bonds>  (260) 
2

>  <r_i_docking_score>  (260) 
-4.57064

>  <r_i_glide_ligand_efficiency>  (260) 
-0.351588

>  <r_i_glide_ligand_efficiency_sa>  (260) 
-0.8267

>  <r_i_glide_ligand_efficiency_ln>  (260) 
-1.2821

>  <r_i_glide_gscore>  (260) 
-4.57064

>  <r_i_glide_lipo>  (260) 
-1.25794

>  <r_i_glide_hbond>  (260) 
0

>  <r_i_glide_metal>  (260) 
-0

>  <r_i_glide_rewards>  (260) 
-3.19822

>  <r_i_glide_evdw>  (260) 
-16.5119

>  <r_i_glide_ecoul>  (260) 
-1.02258

>  <r_i_glide_erotb>  (260) 
0.8645

>  <r_i_glide_esite>  (260) 
0

>  <r_i_glide_emodel>  (260) 
-20.561

>  <r_i_glide_energy>  (260) 
-17.5344

>  <r_i_glide_einternal>  (260) 
5.14417

>  <r_i_glide_intrahb_reward>  (260) 
-0

>  <i_i_glide_confnum>  (260) 
6

>  <i_i_glide_posenum>  (260) 
2

>  <r_i_glide_eff_state_penalty>  (260) 
0

>  <ligand_id>  (260) 
75

>  <original_smiles>  (260) 
Cc1nc2scc(CC3CC3)n2n1

>  <smiles>  (260) 
[H]c1sc2nc(C([H])([H])[H])nn2c1C([H])([H])C1([H])C([H])([H])C1([H])[H]

$$$$
75:0:1
     RDKit          3D

 24 26  0  0  1  0  0  0  0  0999 V2000
   -8.8840   -9.5636  -10.2149 C   0  0  0  0  0  0  0  0  0  0  0  0
   -9.0174   -8.3578   -9.3509 C   0  0  0  0  0  0  0  0  0  0  0  0
  -10.0402   -7.4525   -9.4960 N   0  0  0  0  0  0  0  0  0  0  0  0
   -9.7901   -6.5637   -8.5755 C   0  0  0  0  0  0  0  0  0  0  0  0
  -10.3887   -5.0570   -7.8730 S   0  0  0  0  0  0  0  0  0  0  0  0
   -9.0007   -5.0477   -6.7457 C   0  0  0  0  0  0  0  0  0  0  0  0
   -8.1581   -6.1834   -6.9510 C   0  0  0  0  0  0  0  0  0  0  0  0
   -6.9398   -6.4026   -6.0725 C   0  0  0  0  0  0  0  0  0  0  0  0
   -6.3080   -5.1453   -5.5129 C   0  0  0  0  0  0  0  0  0  0  0  0
   -5.3111   -5.3074   -4.3967 C   0  0  0  0  0  0  0  0  0  0  0  0
   -6.6370   -4.6480   -4.1269 C   0  0  0  0  0  0  0  0  0  0  0  0
   -8.6517   -6.9484   -7.9393 N   0  0  0  0  0  0  0  0  0  0  0  0
   -8.1285   -8.0976   -8.3953 N   0  0  0  0  0  0  0  0  0  0  0  0
   -9.5778   -9.4760  -11.0477 H   0  0  0  0  0  0  0  0  0  0  0  0
   -9.1529  -10.4652   -9.6613 H   0  0  0  0  0  0  0  0  0  0  0  0
   -7.8674   -9.6563  -10.6117 H   0  0  0  0  0  0  0  0  0  0  0  0
   -8.8884   -4.2519   -6.0135 H   0  0  0  0  0  0  0  0  0  0  0  0
   -7.2225   -7.0593   -5.2502 H   0  0  0  0  0  0  0  0  0  0  0  0
   -6.1866   -6.9284   -6.6583 H   0  0  0  0  0  0  0  0  0  0  0  0
   -6.0519   -4.3896   -6.2515 H   0  0  0  0  0  0  0  0  0  0  0  0
   -5.1518   -6.2987   -3.9768 H   0  0  0  0  0  0  0  0  0  0  0  0
   -4.4426   -4.6551   -4.3876 H   0  0  0  0  0  0  0  0  0  0  0  0
   -6.6384   -3.5720   -3.9752 H   0  0  0  0  0  0  0  0  0  0  0  0
   -7.3852   -5.2015   -3.5670 H   0  0  0  0  0  0  0  0  0  0  0  0
  1  2  1  0
  1 14  1  0
  1 15  1  0
  1 16  1  0
  2 13  2  0
  2  3  1  0
  3  4  2  0
  4 12  1  0
  4  5  1  0
  5  6  1  0
  6  7  2  0
  6 17  1  0
  7  8  1  0
  7 12  1  0
  8  9  1  0
  8 18  1  0
  8 19  1  0
  9 11  1  0
  9 10  1  0
  9 20  1  0
 10 11  1  0
 10 21  1  0
 10 22  1  0
 11 23  1  0
 11 24  1  0
 12 13  1  0
M  END
>  <i_m_ct_stereo_status>  (261) 
1

>  <s_m_source_file>  (261) 
/var/tmp/pbs.5076255.sched01/tmpi2d1958y/88otlks1nw.sdf

>  <i_m_source_file_index>  (261) 
34

>  <i_lp_mmshare_version>  (261) 
48012

>  <i_f3d_flags>  (261) 
0

>  <s_epik_input>  (261) 
W0NIM11jKG4xKW5uKGMxMiljKFtjSF1zMilbQ0gyXVtDSF0zW0NIMl1bQ0gyXTM=

>  <s_epik_cmdline>  (261) 
J2VwaWtfcHl0aG9uJywgJy1waHQnLCAnMi4wJywgJy1waCcsICc3LjAnLCAnLXRuJywgJzgnLCAnLW1hJywgJzIwMCcsICctaW1hZScsICc8aW5maWxlLm1hZT4nLCAnLW9tYWUnLCAnPG91dGZpbGUubWFlPic=

>  <r_epik_Ionization_Penalty>  (261) 
0.00152036

>  <r_epik_Ionization_Penalty_Charging>  (261) 
0

>  <r_epik_Ionization_Penalty_Neutral>  (261) 
0.00152036

>  <r_epik_State_Penalty>  (261) 
0.00101948

>  <r_epik_Charging_Adjusted_Penalty>  (261) 
0.00101948

>  <i_epik_Tot_Q>  (261) 
0

>  <i_epik_Tot_abs_Q>  (261) 
0

>  <s_lp_Force_Field>  (261) 
OPLS3e

>  <r_lp_Energy>  (261) 
-0.728388

>  <b_lp_Chiralities_Consistent>  (261) 
1

>  <s_lp_Variant>  (261) 
75:0-1

>  <s_i_glide_gridfile>  (261) 
pfpi4k_grid

>  <i_i_glide_lignum>  (261) 
34

>  <i_i_glide_rotatable_bonds>  (261) 
2

>  <r_i_docking_score>  (261) 
-3.78213

>  <r_i_glide_ligand_efficiency>  (261) 
-0.290933

>  <r_i_glide_ligand_efficiency_sa>  (261) 
-0.684081

>  <r_i_glide_ligand_efficiency_ln>  (261) 
-1.06092

>  <r_i_glide_gscore>  (261) 
-3.78213

>  <r_i_glide_lipo>  (261) 
-1.42563

>  <r_i_glide_hbond>  (261) 
0

>  <r_i_glide_metal>  (261) 
-0

>  <r_i_glide_rewards>  (261) 
-2.41081

>  <r_i_glide_evdw>  (261) 
-17.8327

>  <r_i_glide_ecoul>  (261) 
0.542969

>  <r_i_glide_erotb>  (261) 
0.8645

>  <r_i_glide_esite>  (261) 
0

>  <r_i_glide_emodel>  (261) 
-21.9893

>  <r_i_glide_energy>  (261) 
-17.2898

>  <r_i_glide_einternal>  (261) 
0.260106

>  <r_i_glide_intrahb_reward>  (261) 
-0

>  <i_i_glide_confnum>  (261) 
1

>  <i_i_glide_posenum>  (261) 
3

>  <r_i_glide_eff_state_penalty>  (261) 
0

>  <ligand_id>  (261) 
75

>  <original_smiles>  (261) 
Cc1nc2scc(CC3CC3)n2n1

>  <smiles>  (261) 
[H]c1sc2nc(C([H])([H])[H])nn2c1C([H])([H])C1([H])C([H])([H])C1([H])[H]

$$$$
75:0:2
     RDKit          3D

 24 26  0  0  1  0  0  0  0  0999 V2000
   -0.2263   -2.2456    5.3024 C   0  0  0  0  0  0  0  0  0  0  0  0
   -0.7485   -0.8484    5.2627 C   0  0  0  0  0  0  0  0  0  0  0  0
   -0.9768   -0.1588    4.0936 N   0  0  0  0  0  0  0  0  0  0  0  0
   -1.3948    1.0045    4.4983 C   0  0  0  0  0  0  0  0  0  0  0  0
   -1.9301    2.5964    3.9263 S   0  0  0  0  0  0  0  0  0  0  0  0
   -2.1798    3.0962    5.6224 C   0  0  0  0  0  0  0  0  0  0  0  0
   -1.8432    2.0520    6.5375 C   0  0  0  0  0  0  0  0  0  0  0  0
   -1.9516    2.3063    8.0408 C   0  0  0  0  0  0  0  0  0  0  0  0
   -3.2573    2.9172    8.4976 C   0  0  0  0  0  0  0  0  0  0  0  0
   -3.3004    4.3036    9.0942 C   0  0  0  0  0  0  0  0  0  0  0  0
   -3.4857    3.1047    9.9855 C   0  0  0  0  0  0  0  0  0  0  0  0
   -1.4318    0.9713    5.8574 N   0  0  0  0  0  0  0  0  0  0  0  0
   -1.0325   -0.1930    6.3939 N   0  0  0  0  0  0  0  0  0  0  0  0
    0.1086   -2.5012    4.3028 H   0  0  0  0  0  0  0  0  0  0  0  0
   -1.0223   -2.9388    5.5643 H   0  0  0  0  0  0  0  0  0  0  0  0
    0.6079   -2.3411    5.9981 H   0  0  0  0  0  0  0  0  0  0  0  0
   -2.5331    4.0996    5.8750 H   0  0  0  0  0  0  0  0  0  0  0  0
   -1.8376    1.3462    8.5546 H   0  0  0  0  0  0  0  0  0  0  0  0
   -1.1212    2.9295    8.3617 H   0  0  0  0  0  0  0  0  0  0  0  0
   -4.1395    2.5664    7.9638 H   0  0  0  0  0  0  0  0  0  0  0  0
   -2.3549    4.8424    9.1490 H   0  0  0  0  0  0  0  0  0  0  0  0
   -4.1754    4.9162    8.8777 H   0  0  0  0  0  0  0  0  0  0  0  0
   -4.4839    2.9424   10.3899 H   0  0  0  0  0  0  0  0  0  0  0  0
   -2.6755    2.8471   10.6670 H   0  0  0  0  0  0  0  0  0  0  0  0
  1  2  1  0
  1 14  1  0
  1 15  1  0
  1 16  1  0
  2 13  2  0
  2  3  1  0
  3  4  2  0
  4 12  1  0
  4  5  1  0
  5  6  1  0
  6  7  2  0
  6 17  1  0
  7  8  1  0
  7 12  1  0
  8  9  1  0
  8 18  1  0
  8 19  1  0
  9 11  1  0
  9 10  1  0
  9 20  1  0
 10 11  1  0
 10 21  1  0
 10 22  1  0
 11 23  1  0
 11 24  1  0
 12 13  1  0
M  END
>  <i_m_ct_stereo_status>  (262) 
1

>  <s_m_source_file>  (262) 
/var/tmp/pbs.5076255.sched01/tmpi2d1958y/88otlks1nw.sdf

>  <i_m_source_file_index>  (262) 
34

>  <i_lp_mmshare_version>  (262) 
48012

>  <i_f3d_flags>  (262) 
0

>  <s_epik_input>  (262) 
W0NIM11jKG4xKW5uKGMxMiljKFtjSF1zMilbQ0gyXVtDSF0zW0NIMl1bQ0gyXTM=

>  <s_epik_cmdline>  (262) 
J2VwaWtfcHl0aG9uJywgJy1waHQnLCAnMi4wJywgJy1waCcsICc3LjAnLCAnLXRuJywgJzgnLCAnLW1hJywgJzIwMCcsICctaW1hZScsICc8aW5maWxlLm1hZT4nLCAnLW9tYWUnLCAnPG91dGZpbGUubWFlPic=

>  <r_epik_Ionization_Penalty>  (262) 
0.00152036

>  <r_epik_Ionization_Penalty_Charging>  (262) 
0

>  <r_epik_Ionization_Penalty_Neutral>  (262) 
0.00152036

>  <r_epik_State_Penalty>  (262) 
0.00101948

>  <r_epik_Charging_Adjusted_Penalty>  (262) 
0.00101948

>  <i_epik_Tot_Q>  (262) 
0

>  <i_epik_Tot_abs_Q>  (262) 
0

>  <s_lp_Force_Field>  (262) 
OPLS3e

>  <r_lp_Energy>  (262) 
-0.728388

>  <b_lp_Chiralities_Consistent>  (262) 
1

>  <s_lp_Variant>  (262) 
75:0-1

>  <s_i_glide_gridfile>  (262) 
pfpi4k_grid

>  <i_i_glide_lignum>  (262) 
34

>  <i_i_glide_rotatable_bonds>  (262) 
2

>  <r_i_docking_score>  (262) 
-2.57146

>  <r_i_glide_ligand_efficiency>  (262) 
-0.197804

>  <r_i_glide_ligand_efficiency_sa>  (262) 
-0.465104

>  <r_i_glide_ligand_efficiency_ln>  (262) 
-0.721317

>  <r_i_glide_gscore>  (262) 
-2.57146

>  <r_i_glide_lipo>  (262) 
-0.104573

>  <r_i_glide_hbond>  (262) 
-0.0859104

>  <r_i_glide_metal>  (262) 
-0

>  <r_i_glide_rewards>  (262) 
-2.09134

>  <r_i_glide_evdw>  (262) 
-18.0702

>  <r_i_glide_ecoul>  (262) 
-1.01494

>  <r_i_glide_erotb>  (262) 
0.8645

>  <r_i_glide_esite>  (262) 
-0.0983808

>  <r_i_glide_emodel>  (262) 
-21.722

>  <r_i_glide_energy>  (262) 
-19.0851

>  <r_i_glide_einternal>  (262) 
1.19794

>  <r_i_glide_intrahb_reward>  (262) 
-0

>  <i_i_glide_confnum>  (262) 
1

>  <i_i_glide_posenum>  (262) 
37

>  <r_i_glide_eff_state_penalty>  (262) 
0

>  <ligand_id>  (262) 
75

>  <original_smiles>  (262) 
Cc1nc2scc(CC3CC3)n2n1

>  <smiles>  (262) 
[H]c1sc2nc(C([H])([H])[H])nn2c1C([H])([H])C1([H])C([H])([H])C1([H])[H]

$$$$
76:0:0
     RDKit          3D

 68 73  0  0  1  0  0  0  0  0999 V2000
   -0.7983    3.7792    6.5685 C   0  0  0  0  0  0  0  0  0  0  0  0
   -0.4466    3.5241    5.4279 C   0  0  0  0  0  0  0  0  0  0  0  0
   -0.0956    3.2198    4.0273 C   0  0  1  0  0  0  0  0  0  0  0  0
   -1.0548    3.9501    3.2783 O   0  0  0  0  0  0  0  0  0  0  0  0
    1.2526    3.8348    3.5602 C   0  0  0  0  0  0  0  0  0  0  0  0
    2.0586    2.7240    2.8478 C   0  0  0  0  0  0  0  0  0  0  0  0
    1.6130    1.3826    3.4684 C   0  0  1  0  0  0  0  0  0  0  0  0
    1.6880    0.1746    2.4976 C   0  0  1  0  0  0  0  0  0  0  0  0
    2.9903   -0.0984    2.0086 O   0  0  0  0  0  0  0  0  0  0  0  0
    1.0356   -1.0126    3.2795 C   0  0  2  0  0  0  0  0  0  0  0  0
   -0.2619   -0.6801    3.8346 O   0  0  0  0  0  0  0  0  0  0  0  0
   -0.4624    0.5523    4.5102 C   0  0  1  0  0  0  0  0  0  0  0  0
    0.0743    0.5292    5.8036 O   0  0  0  0  0  0  0  0  0  0  0  0
    1.3932    1.0093    6.0429 C   0  0  0  0  0  0  0  0  0  0  0  0
    2.3785    0.9833    4.8550 C   0  0  2  0  0  0  0  0  0  0  0  0
    3.5193    1.9847    5.2650 C   0  0  0  0  0  0  0  0  0  0  0  0
    4.0405    1.6865    6.5622 O   0  0  0  0  0  0  0  0  0  0  0  0
    5.1055    2.5356    6.9613 C   0  0  0  0  0  0  0  0  0  0  0  0
    2.9519   -0.4666    4.8175 C   0  0  0  0  0  0  0  0  0  0  0  0
    4.2510   -0.7978    5.0329 C   0  0  0  0  0  0  0  0  0  0  0  0
    4.8181   -2.2047    5.0207 C   0  0  1  0  0  0  0  0  0  0  0  0
    5.8033   -2.4100    6.1817 C   0  0  0  0  0  0  0  0  0  0  0  0
    3.7033   -3.2595    5.0329 C   0  0  0  0  0  0  0  0  0  0  0  0
    2.6001   -2.8908    4.0368 C   0  0  1  0  0  0  0  0  0  0  0  0
    1.6461   -3.9556    4.0433 O   0  0  0  0  0  0  0  0  0  0  0  0
    1.6761   -4.9276    3.0947 C   0  0  0  0  0  0  0  0  0  0  0  0
    2.4638   -4.9352    2.1459 O   0  0  0  0  0  0  0  0  0  0  0  0
    0.6238   -5.9678    3.2873 C   0  0  0  0  0  0  0  0  0  0  0  0
   -0.0221   -6.1460    4.5323 C   0  0  0  0  0  0  0  0  0  0  0  0
   -0.9799   -7.0836    4.7212 N   0  0  0  0  0  0  0  0  0  0  0  0
   -1.2635   -7.8834    3.6718 C   0  0  0  0  0  0  0  0  0  0  0  0
   -0.6294   -7.7149    2.4220 C   0  0  0  0  0  0  0  0  0  0  0  0
    0.2926   -6.7439    2.2203 N   0  0  0  0  0  0  0  0  0  0  0  0
    1.9339   -1.5422    4.4197 C   0  0  2  0  0  0  0  0  0  0  0  0
    0.0662    1.6914    3.5944 C   0  0  1  0  0  0  0  0  0  0  0  0
   -0.8084    1.5285    2.2863 C   0  0  0  0  0  0  0  0  0  0  0  0
   -1.1082    3.9805    7.5678 H   0  0  0  0  0  0  0  0  0  0  0  0
   -0.6865    4.1147    2.4043 H   0  0  0  0  0  0  0  0  0  0  0  0
    1.1315    4.6837    2.8804 H   0  0  0  0  0  0  0  0  0  0  0  0
    1.7986    4.2426    4.4048 H   0  0  0  0  0  0  0  0  0  0  0  0
    1.7935    2.7325    1.7884 H   0  0  0  0  0  0  0  0  0  0  0  0
    3.1331    2.8945    2.8691 H   0  0  0  0  0  0  0  0  0  0  0  0
    1.1659    0.3495    1.5619 H   0  0  0  0  0  0  0  0  0  0  0  0
    2.9011   -0.6452    1.2405 H   0  0  0  0  0  0  0  0  0  0  0  0
    0.8483   -1.8234    2.5757 H   0  0  0  0  0  0  0  0  0  0  0  0
   -1.5399    0.6391    4.6524 H   0  0  0  0  0  0  0  0  0  0  0  0
    1.3377    2.0148    6.4368 H   0  0  0  0  0  0  0  0  0  0  0  0
    1.7934    0.4500    6.8905 H   0  0  0  0  0  0  0  0  0  0  0  0
    4.3267    1.9811    4.5290 H   0  0  0  0  0  0  0  0  0  0  0  0
    3.1578    3.0065    5.3315 H   0  0  0  0  0  0  0  0  0  0  0  0
    5.4577    2.2380    7.9495 H   0  0  0  0  0  0  0  0  0  0  0  0
    4.7892    3.5770    7.0237 H   0  0  0  0  0  0  0  0  0  0  0  0
    5.9495    2.4643    6.2755 H   0  0  0  0  0  0  0  0  0  0  0  0
    4.9970   -0.0488    5.2351 H   0  0  0  0  0  0  0  0  0  0  0  0
    5.3707   -2.3040    4.0855 H   0  0  0  0  0  0  0  0  0  0  0  0
    6.6301   -1.7058    6.1147 H   0  0  0  0  0  0  0  0  0  0  0  0
    6.2250   -3.4158    6.1726 H   0  0  0  0  0  0  0  0  0  0  0  0
    5.3220   -2.2548    7.1479 H   0  0  0  0  0  0  0  0  0  0  0  0
    4.1202   -4.2412    4.7983 H   0  0  0  0  0  0  0  0  0  0  0  0
    3.2692   -3.3378    6.0309 H   0  0  0  0  0  0  0  0  0  0  0  0
    3.0518   -2.7750    3.0476 H   0  0  0  0  0  0  0  0  0  0  0  0
    0.2163   -5.5354    5.3893 H   0  0  0  0  0  0  0  0  0  0  0  0
   -2.0064   -8.6531    3.8291 H   0  0  0  0  0  0  0  0  0  0  0  0
   -0.8769   -8.3525    1.5853 H   0  0  0  0  0  0  0  0  0  0  0  0
    1.3208   -1.7310    5.2975 H   0  0  0  0  0  0  0  0  0  0  0  0
   -0.8843    0.5206    1.8892 H   0  0  0  0  0  0  0  0  0  0  0  0
   -0.4429    2.1432    1.4659 H   0  0  0  0  0  0  0  0  0  0  0  0
   -1.8504    1.7884    2.4706 H   0  0  0  0  0  0  0  0  0  0  0  0
  1  2  3  0
  1 37  1  0
  3  2  1  1
  3 35  1  0
  3  4  1  0
  3  5  1  0
  4 38  1  0
  5  6  1  0
  5 39  1  0
  5 40  1  0
  7  6  1  6
  6 41  1  0
  6 42  1  0
  7 15  1  0
  7 35  1  0
  7  8  1  0
  8  9  1  0
  8 10  1  0
  8 43  1  6
  9 44  1  0
 10 34  1  0
 10 11  1  0
 10 45  1  6
 11 12  1  0
 12 13  1  0
 12 35  1  0
 12 46  1  1
 13 14  1  0
 14 15  1  0
 14 47  1  0
 14 48  1  0
 15 16  1  1
 15 19  1  0
 16 17  1  0
 16 49  1  0
 16 50  1  0
 17 18  1  0
 18 51  1  0
 18 52  1  0
 18 53  1  0
 19 34  1  0
 19 20  2  0
 20 21  1  0
 20 54  1  0
 21 22  1  0
 21 23  1  0
 21 55  1  6
 22 56  1  0
 22 57  1  0
 22 58  1  0
 23 24  1  0
 23 59  1  0
 23 60  1  0
 24 25  1  0
 24 34  1  0
 24 61  1  6
 25 26  1  0
 26 27  2  0
 26 28  1  0
 28 33  1  0
 28 29  2  0
 29 30  1  0
 29 62  1  0
 30 31  2  0
 31 32  1  0
 31 63  1  0
 32 33  2  0
 32 64  1  0
 34 65  1  1
 35 36  1  6
 36 66  1  0
 36 67  1  0
 36 68  1  0
M  END
>  <i_m_ct_stereo_status>  (263) 
1

>  <s_m_source_file>  (263) 
/var/tmp/pbs.5076255.sched01/tmpi2d1958y/88otlks1nw.sdf

>  <i_m_source_file_index>  (263) 
35

>  <i_lp_mmshare_version>  (263) 
48012

>  <i_f3d_flags>  (263) 
0

>  <s_epik_input>  (263) 
W0NIXSNDW0NAQF0oW09IXSkoW0NIMl1bQ0gyXTEpW0NAXTIoW0NIM10pW0NASF0oT1tDSDJdMylPW0NAQEhdKFtDQEBIXTRbT0hdKVtDQEhdKEM9NVtDQF0zKFtDQF0xMjQpW0NIMl1PW0NIM10pW0NAQEhdKFtDSDJdW0NAQEhdKFtDSF01KVtDSDNdKU9DKD1PKWM2W2NIXW5bY0hdW2NIXW42

>  <s_epik_cmdline>  (263) 
J2VwaWtfcHl0aG9uJywgJy1waHQnLCAnMi4wJywgJy1waCcsICc3LjAnLCAnLXRuJywgJzgnLCAnLW1hJywgJzIwMCcsICctaW1hZScsICc8aW5maWxlLm1hZT4nLCAnLW9tYWUnLCAnPG91dGZpbGUubWFlPic=

>  <r_lp_tautomer_probability>  (263) 
1

>  <r_epik_Ionization_Penalty>  (263) 
4.69461e-06

>  <r_epik_Ionization_Penalty_Charging>  (263) 
0

>  <r_epik_Ionization_Penalty_Neutral>  (263) 
4.69461e-06

>  <r_epik_State_Penalty>  (263) 
-0

>  <r_epik_Charging_Adjusted_Penalty>  (263) 
0

>  <i_epik_Tot_Q>  (263) 
0

>  <i_epik_Tot_abs_Q>  (263) 
0

>  <s_epik_Chemistry_Notes>  (263) 
This compound has an ester and may undergo hydrolysis at high or low pH. This compound contains an acetal/aminal-like group ( X-CH(R)-Y where X, Y are N, S, or O) that may be acid/base labile, releasing an aldehyde.

>  <s_lp_Force_Field>  (263) 
OPLS3e

>  <r_lp_Energy>  (263) 
93.2177

>  <b_lp_Chiralities_Consistent>  (263) 
1

>  <s_lp_Variant>  (263) 
76:0-1

>  <s_i_glide_gridfile>  (263) 
pfpi4k_grid

>  <i_i_glide_lignum>  (263) 
35

>  <i_i_glide_rotatable_bonds>  (263) 
8

>  <r_i_docking_score>  (263) 
-2.47503

>  <r_i_glide_ligand_efficiency>  (263) 
-0.0687508

>  <r_i_glide_ligand_efficiency_sa>  (263) 
-0.22701

>  <r_i_glide_ligand_efficiency_ln>  (263) 
-0.539985

>  <r_i_glide_gscore>  (263) 
-2.47503

>  <r_i_glide_lipo>  (263) 
-0.0619053

>  <r_i_glide_hbond>  (263) 
-0.191821

>  <r_i_glide_metal>  (263) 
-0

>  <r_i_glide_rewards>  (263) 
-0.0235079

>  <r_i_glide_evdw>  (263) 
-27.7087

>  <r_i_glide_ecoul>  (263) 
-7.96931

>  <r_i_glide_erotb>  (263) 
0.413545

>  <r_i_glide_esite>  (263) 
-0.0305092

>  <r_i_glide_emodel>  (263) 
-40.878

>  <r_i_glide_energy>  (263) 
-35.678

>  <r_i_glide_einternal>  (263) 
2.19322

>  <r_i_glide_intrahb_reward>  (263) 
-0

>  <i_i_glide_confnum>  (263) 
1

>  <i_i_glide_posenum>  (263) 
8

>  <r_i_glide_eff_state_penalty>  (263) 
0

>  <ligand_id>  (263) 
76

>  <original_smiles>  (263) 
C#CC1(O)CCC23C(O)C4OC(OCC2(COC)C2=CC(C)CC(OC(=O)c5cnccn5)C24)C13C

>  <smiles>  (263) 
[H]C#CC1(O[H])C([H])([H])C([H])([H])C23C([H])(O[H])C4([H])OC([H])(OC([H])([H])C2(C([H])([H])OC([H])([H])[H])C2=C([H])C([H])(C([H])([H])[H])C([H])([H])C([H])(OC(=O)c5nc([H])c([H])nc5[H])C24[H])C13C([H])([H])[H]

$$$$
76:0:1
     RDKit          3D

 68 73  0  0  1  0  0  0  0  0999 V2000
   -1.7540    3.7460    6.1834 C   0  0  0  0  0  0  0  0  0  0  0  0
   -1.1667    3.5350    5.1355 C   0  0  0  0  0  0  0  0  0  0  0  0
   -0.5185    3.2643    3.8405 C   0  0  1  0  0  0  0  0  0  0  0  0
   -1.3808    3.8756    2.8868 O   0  0  0  0  0  0  0  0  0  0  0  0
    0.8397    4.0050    3.6437 C   0  0  0  0  0  0  0  0  0  0  0  0
    1.8837    2.9737    3.1501 C   0  0  0  0  0  0  0  0  0  0  0  0
    1.4476    1.6036    3.7089 C   0  0  1  0  0  0  0  0  0  0  0  0
    1.8395    0.4010    2.8129 C   0  0  1  0  0  0  0  0  0  0  0  0
    3.2407    0.2756    2.6288 O   0  0  0  0  0  0  0  0  0  0  0  0
    1.1584   -0.8381    3.4788 C   0  0  2  0  0  0  0  0  0  0  0  0
   -0.2505   -0.6305    3.7421 O   0  0  0  0  0  0  0  0  0  0  0  0
   -0.7124    0.5782    4.3238 C   0  0  1  0  0  0  0  0  0  0  0  0
   -0.4547    0.6236    5.6990 O   0  0  0  0  0  0  0  0  0  0  0  0
    0.7343    1.2309    6.1922 C   0  0  0  0  0  0  0  0  0  0  0  0
    1.9418    1.2943    5.2345 C   0  0  2  0  0  0  0  0  0  0  0  0
    2.8701    2.4101    5.8401 C   0  0  0  0  0  0  0  0  0  0  0  0
    3.1308    2.1814    7.2271 O   0  0  0  0  0  0  0  0  0  0  0  0
    3.9788    3.1536    7.8193 C   0  0  0  0  0  0  0  0  0  0  0  0
    2.6457   -0.0906    5.3631 C   0  0  0  0  0  0  0  0  0  0  0  0
    3.8963   -0.2873    5.8522 C   0  0  0  0  0  0  0  0  0  0  0  0
    4.5853   -1.6326    6.0004 C   0  0  1  0  0  0  0  0  0  0  0  0
    5.3279   -1.7246    7.3437 C   0  0  0  0  0  0  0  0  0  0  0  0
    3.5966   -2.7942    5.8113 C   0  0  0  0  0  0  0  0  0  0  0  0
    2.6991   -2.5407    4.5940 C   0  0  1  0  0  0  0  0  0  0  0  0
    1.8687   -3.6931    4.4057 O   0  0  0  0  0  0  0  0  0  0  0  0
    1.9768   -4.4616    3.2891 C   0  0  0  0  0  0  0  0  0  0  0  0
    2.7747   -4.2332    2.3767 O   0  0  0  0  0  0  0  0  0  0  0  0
    1.0131   -5.6002    3.2531 C   0  0  0  0  0  0  0  0  0  0  0  0
    0.2652   -5.9860    4.3941 C   0  0  0  0  0  0  0  0  0  0  0  0
   -0.6173   -7.0125    4.3653 N   0  0  0  0  0  0  0  0  0  0  0  0
   -0.7250   -7.6877    3.2017 C   0  0  0  0  0  0  0  0  0  0  0  0
    0.0084   -7.3136    2.0574 C   0  0  0  0  0  0  0  0  0  0  0  0
    0.8564   -6.2576    2.0737 N   0  0  0  0  0  0  0  0  0  0  0  0
    1.8431   -1.2630    4.7949 C   0  0  2  0  0  0  0  0  0  0  0  0
   -0.1119    1.7564    3.5013 C   0  0  1  0  0  0  0  0  0  0  0  0
   -0.6722    1.4925    2.0499 C   0  0  0  0  0  0  0  0  0  0  0  0
   -2.2544    3.9293    7.1062 H   0  0  0  0  0  0  0  0  0  0  0  0
   -0.8362    4.1227    2.1279 H   0  0  0  0  0  0  0  0  0  0  0  0
    0.7870    4.8297    2.9270 H   0  0  0  0  0  0  0  0  0  0  0  0
    1.1576    4.4754    4.5695 H   0  0  0  0  0  0  0  0  0  0  0  0
    1.8372    2.9453    2.0599 H   0  0  0  0  0  0  0  0  0  0  0  0
    2.9114    3.2512    3.3828 H   0  0  0  0  0  0  0  0  0  0  0  0
    1.5108    0.5022    1.7819 H   0  0  0  0  0  0  0  0  0  0  0  0
    3.5514    1.0706    2.2261 H   0  0  0  0  0  0  0  0  0  0  0  0
    1.1973   -1.6643    2.7695 H   0  0  0  0  0  0  0  0  0  0  0  0
   -1.7980    0.5540    4.2364 H   0  0  0  0  0  0  0  0  0  0  0  0
    0.5046    2.2306    6.5353 H   0  0  0  0  0  0  0  0  0  0  0  0
    0.9998    0.7260    7.1220 H   0  0  0  0  0  0  0  0  0  0  0  0
    3.8138    2.4794    5.2930 H   0  0  0  0  0  0  0  0  0  0  0  0
    2.4074    3.3917    5.7954 H   0  0  0  0  0  0  0  0  0  0  0  0
    4.1424    2.9056    8.8681 H   0  0  0  0  0  0  0  0  0  0  0  0
    3.5380    4.1496    7.7823 H   0  0  0  0  0  0  0  0  0  0  0  0
    4.9532    3.1825    7.3321 H   0  0  0  0  0  0  0  0  0  0  0  0
    4.5110    0.5328    6.1819 H   0  0  0  0  0  0  0  0  0  0  0  0
    5.3283   -1.6863    5.2030 H   0  0  0  0  0  0  0  0  0  0  0  0
    6.0901   -0.9498    7.4246 H   0  0  0  0  0  0  0  0  0  0  0  0
    5.8302   -2.6849    7.4566 H   0  0  0  0  0  0  0  0  0  0  0  0
    4.6450   -1.6036    8.1848 H   0  0  0  0  0  0  0  0  0  0  0  0
    4.1421   -3.7327    5.6962 H   0  0  0  0  0  0  0  0  0  0  0  0
    2.9753   -2.9056    6.7013 H   0  0  0  0  0  0  0  0  0  0  0  0
    3.3556   -2.3746    3.7371 H   0  0  0  0  0  0  0  0  0  0  0  0
    0.3623   -5.4716    5.3367 H   0  0  0  0  0  0  0  0  0  0  0  0
   -1.4137   -8.5224    3.1800 H   0  0  0  0  0  0  0  0  0  0  0  0
   -0.0992   -7.8480    1.1240 H   0  0  0  0  0  0  0  0  0  0  0  0
    1.0797   -1.5058    5.5307 H   0  0  0  0  0  0  0  0  0  0  0  0
   -0.5643    0.4755    1.6818 H   0  0  0  0  0  0  0  0  0  0  0  0
   -0.2098    2.1396    1.3019 H   0  0  0  0  0  0  0  0  0  0  0  0
   -1.7511    1.6415    2.0103 H   0  0  0  0  0  0  0  0  0  0  0  0
  1  2  3  0
  1 37  1  0
  3  2  1  1
  3 35  1  0
  3  4  1  0
  3  5  1  0
  4 38  1  0
  5  6  1  0
  5 39  1  0
  5 40  1  0
  7  6  1  6
  6 41  1  0
  6 42  1  0
  7 15  1  0
  7 35  1  0
  7  8  1  0
  8  9  1  0
  8 10  1  0
  8 43  1  6
  9 44  1  0
 10 34  1  0
 10 11  1  0
 10 45  1  6
 11 12  1  0
 12 13  1  0
 12 35  1  0
 12 46  1  1
 13 14  1  0
 14 15  1  0
 14 47  1  0
 14 48  1  0
 15 16  1  1
 15 19  1  0
 16 17  1  0
 16 49  1  0
 16 50  1  0
 17 18  1  0
 18 51  1  0
 18 52  1  0
 18 53  1  0
 19 34  1  0
 19 20  2  0
 20 21  1  0
 20 54  1  0
 21 22  1  0
 21 23  1  0
 21 55  1  6
 22 56  1  0
 22 57  1  0
 22 58  1  0
 23 24  1  0
 23 59  1  0
 23 60  1  0
 24 25  1  0
 24 34  1  0
 24 61  1  6
 25 26  1  0
 26 27  2  0
 26 28  1  0
 28 33  1  0
 28 29  2  0
 29 30  1  0
 29 62  1  0
 30 31  2  0
 31 32  1  0
 31 63  1  0
 32 33  2  0
 32 64  1  0
 34 65  1  1
 35 36  1  6
 36 66  1  0
 36 67  1  0
 36 68  1  0
M  END
>  <i_m_ct_stereo_status>  (264) 
1

>  <s_m_source_file>  (264) 
/var/tmp/pbs.5076255.sched01/tmpi2d1958y/88otlks1nw.sdf

>  <i_m_source_file_index>  (264) 
35

>  <i_lp_mmshare_version>  (264) 
48012

>  <i_f3d_flags>  (264) 
0

>  <s_epik_input>  (264) 
W0NIXSNDW0NAQF0oW09IXSkoW0NIMl1bQ0gyXTEpW0NAXTIoW0NIM10pW0NASF0oT1tDSDJdMylPW0NAQEhdKFtDQEBIXTRbT0hdKVtDQEhdKEM9NVtDQF0zKFtDQF0xMjQpW0NIMl1PW0NIM10pW0NAQEhdKFtDSDJdW0NAQEhdKFtDSF01KVtDSDNdKU9DKD1PKWM2W2NIXW5bY0hdW2NIXW42

>  <s_epik_cmdline>  (264) 
J2VwaWtfcHl0aG9uJywgJy1waHQnLCAnMi4wJywgJy1waCcsICc3LjAnLCAnLXRuJywgJzgnLCAnLW1hJywgJzIwMCcsICctaW1hZScsICc8aW5maWxlLm1hZT4nLCAnLW9tYWUnLCAnPG91dGZpbGUubWFlPic=

>  <r_lp_tautomer_probability>  (264) 
1

>  <r_epik_Ionization_Penalty>  (264) 
4.69461e-06

>  <r_epik_Ionization_Penalty_Charging>  (264) 
0

>  <r_epik_Ionization_Penalty_Neutral>  (264) 
4.69461e-06

>  <r_epik_State_Penalty>  (264) 
-0

>  <r_epik_Charging_Adjusted_Penalty>  (264) 
0

>  <i_epik_Tot_Q>  (264) 
0

>  <i_epik_Tot_abs_Q>  (264) 
0

>  <s_epik_Chemistry_Notes>  (264) 
This compound has an ester and may undergo hydrolysis at high or low pH. This compound contains an acetal/aminal-like group ( X-CH(R)-Y where X, Y are N, S, or O) that may be acid/base labile, releasing an aldehyde.

>  <s_lp_Force_Field>  (264) 
OPLS3e

>  <r_lp_Energy>  (264) 
93.2177

>  <b_lp_Chiralities_Consistent>  (264) 
1

>  <s_lp_Variant>  (264) 
76:0-1

>  <s_i_glide_gridfile>  (264) 
pfpi4k_grid

>  <i_i_glide_lignum>  (264) 
35

>  <i_i_glide_rotatable_bonds>  (264) 
8

>  <r_i_docking_score>  (264) 
-2.39622

>  <r_i_glide_ligand_efficiency>  (264) 
-0.0665618

>  <r_i_glide_ligand_efficiency_sa>  (264) 
-0.219782

>  <r_i_glide_ligand_efficiency_ln>  (264) 
-0.522791

>  <r_i_glide_gscore>  (264) 
-2.39622

>  <r_i_glide_lipo>  (264) 
-0.0357635

>  <r_i_glide_hbond>  (264) 
-0.207447

>  <r_i_glide_metal>  (264) 
-0

>  <r_i_glide_rewards>  (264) 
-0.0235079

>  <r_i_glide_evdw>  (264) 
-25.455

>  <r_i_glide_ecoul>  (264) 
-8.31725

>  <r_i_glide_erotb>  (264) 
0.413545

>  <r_i_glide_esite>  (264) 
-0.0227134

>  <r_i_glide_emodel>  (264) 
-39.0658

>  <r_i_glide_energy>  (264) 
-33.7722

>  <r_i_glide_einternal>  (264) 
1.69745

>  <r_i_glide_intrahb_reward>  (264) 
-0

>  <i_i_glide_confnum>  (264) 
1

>  <i_i_glide_posenum>  (264) 
4

>  <r_i_glide_eff_state_penalty>  (264) 
0

>  <ligand_id>  (264) 
76

>  <original_smiles>  (264) 
C#CC1(O)CCC23C(O)C4OC(OCC2(COC)C2=CC(C)CC(OC(=O)c5cnccn5)C24)C13C

>  <smiles>  (264) 
[H]C#CC1(O[H])C([H])([H])C([H])([H])C23C([H])(O[H])C4([H])OC([H])(OC([H])([H])C2(C([H])([H])OC([H])([H])[H])C2=C([H])C([H])(C([H])([H])[H])C([H])([H])C([H])(OC(=O)c5nc([H])c([H])nc5[H])C24[H])C13C([H])([H])[H]

$$$$
76:0:2
     RDKit          3D

 68 73  0  0  1  0  0  0  0  0999 V2000
    3.0885  -10.0086    1.8976 C   0  0  0  0  0  0  0  0  0  0  0  0
    2.0657   -9.7559    2.5126 C   0  0  0  0  0  0  0  0  0  0  0  0
    0.8186   -9.4500    3.2281 C   0  0  1  0  0  0  0  0  0  0  0  0
   -0.1983  -10.1052    2.4736 O   0  0  0  0  0  0  0  0  0  0  0  0
    0.7369  -10.0915    4.6414 C   0  0  0  0  0  0  0  0  0  0  0  0
    0.3066   -8.9926    5.6430 C   0  0  0  0  0  0  0  0  0  0  0  0
    0.8130   -7.6521    5.0701 C   0  0  1  0  0  0  0  0  0  0  0  0
   -0.0649   -6.4262    5.4312 C   0  0  1  0  0  0  0  0  0  0  0  0
   -0.1591   -6.1536    6.8204 O   0  0  0  0  0  0  0  0  0  0  0  0
    0.5319   -5.2470    4.5997 C   0  0  2  0  0  0  0  0  0  0  0  0
    0.6721   -5.5558    3.1896 O   0  0  0  0  0  0  0  0  0  0  0  0
    1.2531   -6.7894    2.7963 C   0  0  1  0  0  0  0  0  0  0  0  0
    2.6435   -6.7925    2.9623 O   0  0  0  0  0  0  0  0  0  0  0  0
    3.2333   -7.3163    4.1480 C   0  0  0  0  0  0  0  0  0  0  0  0
    2.3683   -7.2985    5.4241 C   0  0  2  0  0  0  0  0  0  0  0  0
    3.0561   -8.3376    6.3826 C   0  0  0  0  0  0  0  0  0  0  0  0
    4.4536   -8.0722    6.5244 O   0  0  0  0  0  0  0  0  0  0  0  0
    5.1209   -8.9875    7.3784 C   0  0  0  0  0  0  0  0  0  0  0  0
    2.5273   -5.8633    6.0079 C   0  0  0  0  0  0  0  0  0  0  0  0
    3.1040   -5.5661    7.2010 C   0  0  0  0  0  0  0  0  0  0  0  0
    3.2816   -4.1708    7.7721 C   0  0  1  0  0  0  0  0  0  0  0  0
    4.6737   -4.0134    8.4042 C   0  0  0  0  0  0  0  0  0  0  0  0
    3.0039   -3.0896    6.7136 C   0  0  0  0  0  0  0  0  0  0  0  0
    1.7286   -3.4249    5.9310 C   0  0  1  0  0  0  0  0  0  0  0  0
    1.4454   -2.3479    5.0320 O   0  0  0  0  0  0  0  0  0  0  0  0
    0.2902   -1.6361    5.1199 C   0  0  0  0  0  0  0  0  0  0  0  0
   -0.5799   -1.8438    5.9709 O   0  0  0  0  0  0  0  0  0  0  0  0
    0.1716   -0.5771    4.0760 C   0  0  0  0  0  0  0  0  0  0  0  0
    1.1660   -0.3777    3.0843 C   0  0  0  0  0  0  0  0  0  0  0  0
    1.0608    0.5832    2.1391 N   0  0  0  0  0  0  0  0  0  0  0  0
   -0.0465    1.3505    2.1725 C   0  0  0  0  0  0  0  0  0  0  0  0
   -1.0455    1.1623    3.1543 C   0  0  0  0  0  0  0  0  0  0  0  0
   -0.9408    0.2009    4.0980 N   0  0  0  0  0  0  0  0  0  0  0  0
    1.8891   -4.7600    5.1571 C   0  0  2  0  0  0  0  0  0  0  0  0
    0.4917   -7.9212    3.5410 C   0  0  1  0  0  0  0  0  0  0  0  0
   -1.0093   -7.7106    3.0734 C   0  0  0  0  0  0  0  0  0  0  0  0
    3.9738  -10.2501    1.3598 H   0  0  0  0  0  0  0  0  0  0  0  0
   -0.0214  -10.0042    1.5461 H   0  0  0  0  0  0  0  0  0  0  0  0
    0.0438  -10.9331    4.6843 H   0  0  0  0  0  0  0  0  0  0  0  0
    1.6891  -10.5315    4.9289 H   0  0  0  0  0  0  0  0  0  0  0  0
   -0.7841   -8.9807    5.6712 H   0  0  0  0  0  0  0  0  0  0  0  0
    0.6193   -9.1977    6.6658 H   0  0  0  0  0  0  0  0  0  0  0  0
   -1.1114   -6.5718    5.1878 H   0  0  0  0  0  0  0  0  0  0  0  0
    0.7201   -6.1006    7.1647 H   0  0  0  0  0  0  0  0  0  0  0  0
   -0.1855   -4.4290    4.6387 H   0  0  0  0  0  0  0  0  0  0  0  0
    1.1022   -6.8639    1.7197 H   0  0  0  0  0  0  0  0  0  0  0  0
    3.5788   -8.3261    3.9717 H   0  0  0  0  0  0  0  0  0  0  0  0
    4.1718   -6.7805    4.3031 H   0  0  0  0  0  0  0  0  0  0  0  0
    2.5777   -8.3424    7.3661 H   0  0  0  0  0  0  0  0  0  0  0  0
    2.9894   -9.3516    5.9953 H   0  0  0  0  0  0  0  0  0  0  0  0
    6.1743   -8.7179    7.4455 H   0  0  0  0  0  0  0  0  0  0  0  0
    5.0648  -10.0077    6.9989 H   0  0  0  0  0  0  0  0  0  0  0  0
    4.7082   -8.9643    8.3865 H   0  0  0  0  0  0  0  0  0  0  0  0
    3.4920   -6.3362    7.8465 H   0  0  0  0  0  0  0  0  0  0  0  0
    2.5392   -4.0715    8.5660 H   0  0  0  0  0  0  0  0  0  0  0  0
    4.8196   -4.7278    9.2142 H   0  0  0  0  0  0  0  0  0  0  0  0
    4.8069   -3.0171    8.8238 H   0  0  0  0  0  0  0  0  0  0  0  0
    5.4648   -4.1783    7.6724 H   0  0  0  0  0  0  0  0  0  0  0  0
    2.9140   -2.1142    7.1967 H   0  0  0  0  0  0  0  0  0  0  0  0
    3.8449   -3.0173    6.0213 H   0  0  0  0  0  0  0  0  0  0  0  0
    0.9288   -3.5453    6.6655 H   0  0  0  0  0  0  0  0  0  0  0  0
    2.0560   -0.9827    3.0341 H   0  0  0  0  0  0  0  0  0  0  0  0
   -0.1420    2.1170    1.4192 H   0  0  0  0  0  0  0  0  0  0  0  0
   -1.9307    1.7799    3.1697 H   0  0  0  0  0  0  0  0  0  0  0  0
    2.5643   -4.5678    4.3255 H   0  0  0  0  0  0  0  0  0  0  0  0
   -1.3922   -6.6959    3.1392 H   0  0  0  0  0  0  0  0  0  0  0  0
   -1.7038   -8.3498    3.6236 H   0  0  0  0  0  0  0  0  0  0  0  0
   -1.1236   -7.9357    2.0125 H   0  0  0  0  0  0  0  0  0  0  0  0
  1  2  3  0
  1 37  1  0
  3  2  1  6
  3 35  1  0
  3  4  1  0
  3  5  1  0
  4 38  1  0
  5  6  1  0
  5 39  1  0
  5 40  1  0
  7  6  1  1
  6 41  1  0
  6 42  1  0
  7 15  1  0
  7 35  1  0
  7  8  1  0
  8  9  1  0
  8 10  1  0
  8 43  1  6
  9 44  1  0
 10 34  1  0
 10 11  1  0
 10 45  1  6
 11 12  1  0
 12 13  1  0
 12 35  1  0
 12 46  1  6
 13 14  1  0
 14 15  1  0
 14 47  1  0
 14 48  1  0
 15 16  1  1
 15 19  1  0
 16 17  1  0
 16 49  1  0
 16 50  1  0
 17 18  1  0
 18 51  1  0
 18 52  1  0
 18 53  1  0
 19 34  1  0
 19 20  2  0
 20 21  1  0
 20 54  1  0
 21 22  1  0
 21 23  1  0
 21 55  1  1
 22 56  1  0
 22 57  1  0
 22 58  1  0
 23 24  1  0
 23 59  1  0
 23 60  1  0
 24 25  1  0
 24 34  1  0
 24 61  1  1
 25 26  1  0
 26 27  2  0
 26 28  1  0
 28 33  1  0
 28 29  2  0
 29 30  1  0
 29 62  1  0
 30 31  2  0
 31 32  1  0
 31 63  1  0
 32 33  2  0
 32 64  1  0
 34 65  1  6
 35 36  1  1
 36 66  1  0
 36 67  1  0
 36 68  1  0
M  END
>  <i_m_ct_stereo_status>  (265) 
1

>  <s_m_source_file>  (265) 
/var/tmp/pbs.5076255.sched01/tmpi2d1958y/88otlks1nw.sdf

>  <i_m_source_file_index>  (265) 
35

>  <i_lp_mmshare_version>  (265) 
48012

>  <i_f3d_flags>  (265) 
0

>  <s_epik_input>  (265) 
W0NIXSNDW0NAQF0oW09IXSkoW0NIMl1bQ0gyXTEpW0NAXTIoW0NIM10pW0NASF0oT1tDSDJdMylPW0NAQEhdKFtDQEBIXTRbT0hdKVtDQEhdKEM9NVtDQF0zKFtDQF0xMjQpW0NIMl1PW0NIM10pW0NAQEhdKFtDSDJdW0NAQEhdKFtDSF01KVtDSDNdKU9DKD1PKWM2W2NIXW5bY0hdW2NIXW42

>  <s_epik_cmdline>  (265) 
J2VwaWtfcHl0aG9uJywgJy1waHQnLCAnMi4wJywgJy1waCcsICc3LjAnLCAnLXRuJywgJzgnLCAnLW1hJywgJzIwMCcsICctaW1hZScsICc8aW5maWxlLm1hZT4nLCAnLW9tYWUnLCAnPG91dGZpbGUubWFlPic=

>  <r_lp_tautomer_probability>  (265) 
1

>  <r_epik_Ionization_Penalty>  (265) 
4.69461e-06

>  <r_epik_Ionization_Penalty_Charging>  (265) 
0

>  <r_epik_Ionization_Penalty_Neutral>  (265) 
4.69461e-06

>  <r_epik_State_Penalty>  (265) 
-0

>  <r_epik_Charging_Adjusted_Penalty>  (265) 
0

>  <i_epik_Tot_Q>  (265) 
0

>  <i_epik_Tot_abs_Q>  (265) 
0

>  <s_epik_Chemistry_Notes>  (265) 
This compound has an ester and may undergo hydrolysis at high or low pH. This compound contains an acetal/aminal-like group ( X-CH(R)-Y where X, Y are N, S, or O) that may be acid/base labile, releasing an aldehyde.

>  <s_lp_Force_Field>  (265) 
OPLS3e

>  <r_lp_Energy>  (265) 
93.2177

>  <b_lp_Chiralities_Consistent>  (265) 
1

>  <s_lp_Variant>  (265) 
76:0-1

>  <s_i_glide_gridfile>  (265) 
pfpi4k_grid

>  <i_i_glide_lignum>  (265) 
35

>  <i_i_glide_rotatable_bonds>  (265) 
8

>  <r_i_docking_score>  (265) 
-2.27297

>  <r_i_glide_ligand_efficiency>  (265) 
-0.063138

>  <r_i_glide_ligand_efficiency_sa>  (265) 
-0.208477

>  <r_i_glide_ligand_efficiency_ln>  (265) 
-0.4959

>  <r_i_glide_gscore>  (265) 
-2.27297

>  <r_i_glide_lipo>  (265) 
-0.0676016

>  <r_i_glide_hbond>  (265) 
-0.341672

>  <r_i_glide_metal>  (265) 
-0

>  <r_i_glide_rewards>  (265) 
-0.0235079

>  <r_i_glide_evdw>  (265) 
-26.8206

>  <r_i_glide_ecoul>  (265) 
-5.84162

>  <r_i_glide_erotb>  (265) 
0.413545

>  <r_i_glide_esite>  (265) 
-0.036459

>  <r_i_glide_emodel>  (265) 
-37.4327

>  <r_i_glide_energy>  (265) 
-32.6622

>  <r_i_glide_einternal>  (265) 
2.14973

>  <r_i_glide_intrahb_reward>  (265) 
-0

>  <i_i_glide_confnum>  (265) 
1

>  <i_i_glide_posenum>  (265) 
17

>  <r_i_glide_eff_state_penalty>  (265) 
0

>  <ligand_id>  (265) 
76

>  <original_smiles>  (265) 
C#CC1(O)CCC23C(O)C4OC(OCC2(COC)C2=CC(C)CC(OC(=O)c5cnccn5)C24)C13C

>  <smiles>  (265) 
[H]C#CC1(O[H])C([H])([H])C([H])([H])C23C([H])(O[H])C4([H])OC([H])(OC([H])([H])C2(C([H])([H])OC([H])([H])[H])C2=C([H])C([H])(C([H])([H])[H])C([H])([H])C([H])(OC(=O)c5nc([H])c([H])nc5[H])C24[H])C13C([H])([H])[H]

$$$$
77:0:0
     RDKit          3D

 60 67  0  0  1  0  0  0  0  0999 V2000
    4.0375   -9.0620    0.7501 C   0  0  0  0  0  0  0  0  0  0  0  0
    3.9695   -9.0242    2.0879 C   0  0  0  0  0  0  0  0  0  0  0  0
    2.9915   -9.8942    2.8585 C   0  0  0  0  0  0  0  0  0  0  0  0
    4.8584   -8.1617    2.9192 C   0  0  2  0  0  0  0  0  0  0  0  0
    4.3461   -7.0329    3.8005 C   0  0  2  0  0  0  0  0  0  0  0  0
    2.8884   -6.4470    3.8204 C   0  0  0  0  0  0  0  0  0  0  0  0
    2.7793   -4.9107    3.4890 C   0  0  1  0  0  0  0  0  0  0  0  0
    4.0972   -4.2467    3.5958 C   0  0  0  0  0  0  0  0  0  0  0  0
    4.1785   -4.5463    2.0736 C   0  0  1  0  0  0  0  0  0  0  0  0
    4.4323   -5.9873    1.5748 C   0  0  0  0  0  0  0  0  0  0  0  0
    5.2205   -6.7313    2.5657 C   0  0  2  0  0  0  0  0  0  0  0  0
    6.6568   -6.2306    2.5918 C   0  0  0  0  0  0  0  0  0  0  0  0
    7.3534   -6.0826    3.7367 C   0  0  0  0  0  0  0  0  0  0  0  0
    7.3326   -5.8795    1.2371 C   0  0  0  0  0  0  0  0  0  0  0  0
    7.2511   -4.4118    0.6540 C   0  0  0  0  0  0  0  0  0  0  0  0
    5.8728   -3.8778    0.2118 C   0  0  2  0  0  0  0  0  0  0  0  0
    5.3861   -4.7379   -0.8398 O   0  0  0  0  0  0  0  0  0  0  0  0
    5.3432   -3.4002   -1.1811 C   0  0  1  0  0  0  0  0  0  0  0  0
    3.8879   -3.0724   -1.5534 C   0  0  0  0  0  0  0  0  0  0  0  0
    2.7952   -3.5676   -0.5367 C   0  0  0  0  0  0  0  0  0  0  0  0
    2.7593   -3.0626    0.9651 C   0  0  1  0  0  0  0  0  0  0  0  0
    2.6487   -4.3093    1.9613 C   0  0  1  0  0  0  0  0  0  0  0  0
    4.0518   -2.2940    1.2949 C   0  0  0  0  0  0  0  0  0  0  0  0
    4.4232   -1.3446    0.3601 O   0  0  0  0  0  0  0  0  0  0  0  0
    4.9427   -0.2388    1.0512 C   0  0  0  0  0  0  0  0  0  0  0  0
    4.8830   -0.6334    2.5159 C   0  0  0  0  0  0  0  0  0  0  0  0
    3.8680   -1.5992    2.4820 O   0  0  0  0  0  0  0  0  0  0  0  0
    5.0465   -3.4670    1.4400 C   0  0  1  0  0  0  0  0  0  0  0  0
    3.3836   -9.7139    0.1841 H   0  0  0  0  0  0  0  0  0  0  0  0
    4.7447   -8.4558    0.2004 H   0  0  0  0  0  0  0  0  0  0  0  0
    2.3398   -9.2927    3.4922 H   0  0  0  0  0  0  0  0  0  0  0  0
    3.5289  -10.6008    3.4921 H   0  0  0  0  0  0  0  0  0  0  0  0
    2.3631  -10.4648    2.1724 H   0  0  0  0  0  0  0  0  0  0  0  0
    5.6549   -8.7622    3.3494 H   0  0  0  0  0  0  0  0  0  0  0  0
    4.8231   -6.9902    4.7780 H   0  0  0  0  0  0  0  0  0  0  0  0
    2.2322   -7.0286    3.1726 H   0  0  0  0  0  0  0  0  0  0  0  0
    2.5018   -6.6188    4.8254 H   0  0  0  0  0  0  0  0  0  0  0  0
    2.1039   -4.4543    4.2254 H   0  0  0  0  0  0  0  0  0  0  0  0
    3.9768   -3.2284    3.9462 H   0  0  0  0  0  0  0  0  0  0  0  0
    4.8573   -4.6995    4.2280 H   0  0  0  0  0  0  0  0  0  0  0  0
    3.4807   -6.4857    1.4137 H   0  0  0  0  0  0  0  0  0  0  0  0
    4.8575   -6.1727    0.6136 H   0  0  0  0  0  0  0  0  0  0  0  0
    6.9293   -6.3160    4.7008 H   0  0  0  0  0  0  0  0  0  0  0  0
    8.3738   -5.7240    3.7144 H   0  0  0  0  0  0  0  0  0  0  0  0
    8.3947   -6.0976    1.3661 H   0  0  0  0  0  0  0  0  0  0  0  0
    7.0111   -6.5995    0.4862 H   0  0  0  0  0  0  0  0  0  0  0  0
    7.7145   -3.7087    1.3454 H   0  0  0  0  0  0  0  0  0  0  0  0
    7.8874   -4.3822   -0.2302 H   0  0  0  0  0  0  0  0  0  0  0  0
    6.0911   -3.1018   -1.9123 H   0  0  0  0  0  0  0  0  0  0  0  0
    3.7822   -2.0086   -1.7708 H   0  0  0  0  0  0  0  0  0  0  0  0
    3.7001   -3.5498   -2.5133 H   0  0  0  0  0  0  0  0  0  0  0  0
    1.8260   -3.3429   -0.9861 H   0  0  0  0  0  0  0  0  0  0  0  0
    2.8372   -4.6550   -0.5346 H   0  0  0  0  0  0  0  0  0  0  0  0
    1.9214   -2.3626    1.0584 H   0  0  0  0  0  0  0  0  0  0  0  0
    2.0203   -3.6266    2.5332 H   0  0  0  0  0  0  0  0  0  0  0  0
    5.9536   -0.0099    0.7176 H   0  0  0  0  0  0  0  0  0  0  0  0
    4.3032    0.6227    0.8655 H   0  0  0  0  0  0  0  0  0  0  0  0
    5.8217   -1.0765    2.8428 H   0  0  0  0  0  0  0  0  0  0  0  0
    4.6392    0.1873    3.1873 H   0  0  0  0  0  0  0  0  0  0  0  0
    5.7816   -3.1495    2.1767 H   0  0  0  0  0  0  0  0  0  0  0  0
  1  2  2  0
  1 29  1  0
  1 30  1  0
  2  3  1  0
  2  4  1  0
  3 31  1  0
  3 32  1  0
  3 33  1  0
  4 11  1  0
  4  5  1  0
  4 34  1  1
  5 11  1  0
  5  6  1  0
  5 35  1  1
  6  7  1  0
  6 36  1  0
  6 37  1  0
  7 22  1  0
  7  8  1  0
  7 38  1  1
  9  8  1  1
  8 39  1  0
  8 40  1  0
  9 22  1  0
  9 28  1  0
  9 10  1  0
 10 11  1  0
 10 41  1  0
 10 42  1  0
 11 12  1  1
 12 13  2  0
 12 14  1  0
 13 43  1  0
 13 44  1  0
 14 15  1  0
 14 45  1  0
 14 46  1  0
 15 16  1  0
 15 47  1  0
 15 48  1  0
 16 18  1  0
 16 28  1  0
 16 17  1  6
 17 18  1  0
 18 19  1  0
 18 49  1  6
 19 20  1  0
 19 50  1  0
 19 51  1  0
 20 21  1  0
 20 52  1  0
 20 53  1  0
 21 22  1  0
 21 23  1  0
 21 54  1  6
 22 55  1  6
 23 27  1  0
 23 24  1  0
 23 28  1  0
 24 25  1  0
 25 26  1  0
 25 56  1  0
 25 57  1  0
 26 27  1  0
 26 58  1  0
 26 59  1  0
 28 60  1  1
M  END
>  <i_m_ct_stereo_status>  (266) 
1

>  <s_m_source_file>  (266) 
/var/tmp/pbs.5076255.sched01/tmpi2d1958y/88otlks1nw.sdf

>  <i_m_source_file_index>  (266) 
36

>  <i_lp_mmshare_version>  (266) 
48012

>  <i_f3d_flags>  (266) 
0

>  <s_epik_input>  (266) 
W0NAXTEyM1tDSF00W0NASF0oW0NIMl0xKVtDSDJdW0NAQEhdNVtDQF0oW0NIMl0yKShbQ0BASF01Qyg9W0NIMl0pW0NIM10pQyg9W0NIMl0pW0NIMl1bQ0gyXUM2N1tDQEBIXShPNilbQ0gyXVtDSDJdW0NAQEhdNEM4KFtDQEBIXTM3KU9bQ0gyXVtDSDJdTzg=

>  <s_epik_cmdline>  (266) 
J2VwaWtfcHl0aG9uJywgJy1waHQnLCAnMi4wJywgJy1waCcsICc3LjAnLCAnLXRuJywgJzgnLCAnLW1hJywgJzIwMCcsICctaW1hZScsICc8aW5maWxlLm1hZT4nLCAnLW9tYWUnLCAnPG91dGZpbGUubWFlPic=

>  <r_lp_tautomer_probability>  (266) 
1

>  <r_epik_Ionization_Penalty>  (266) 
1.44502e-11

>  <r_epik_Ionization_Penalty_Charging>  (266) 
0

>  <r_epik_Ionization_Penalty_Neutral>  (266) 
1.44502e-11

>  <r_epik_State_Penalty>  (266) 
-0

>  <r_epik_Charging_Adjusted_Penalty>  (266) 
0

>  <i_epik_Tot_Q>  (266) 
0

>  <i_epik_Tot_abs_Q>  (266) 
0

>  <s_lp_Force_Field>  (266) 
OPLS3e

>  <r_lp_Energy>  (266) 
174.916

>  <b_lp_Chiralities_Consistent>  (266) 
1

>  <s_lp_Variant>  (266) 
77:0-1

>  <s_i_glide_gridfile>  (266) 
pfpi4k_grid

>  <i_i_glide_lignum>  (266) 
36

>  <i_i_glide_rotatable_bonds>  (266) 
1

>  <r_i_docking_score>  (266) 
-2.64294

>  <r_i_glide_ligand_efficiency>  (266) 
-0.0943906

>  <r_i_glide_ligand_efficiency_sa>  (266) 
-0.286625

>  <r_i_glide_ligand_efficiency_ln>  (266) 
-0.610067

>  <r_i_glide_gscore>  (266) 
-2.64294

>  <r_i_glide_lipo>  (266) 
-0.739538

>  <r_i_glide_hbond>  (266) 
0

>  <r_i_glide_metal>  (266) 
-0

>  <r_i_glide_rewards>  (266) 
-0.814638

>  <r_i_glide_evdw>  (266) 
-26.2793

>  <r_i_glide_ecoul>  (266) 
0.623929

>  <r_i_glide_erotb>  (266) 
0.133992

>  <r_i_glide_esite>  (266) 
-0.00237578

>  <r_i_glide_emodel>  (266) 
-29.402

>  <r_i_glide_energy>  (266) 
-25.6554

>  <r_i_glide_einternal>  (266) 
0.445147

>  <r_i_glide_intrahb_reward>  (266) 
-0

>  <i_i_glide_confnum>  (266) 
1

>  <i_i_glide_posenum>  (266) 
13

>  <r_i_glide_eff_state_penalty>  (266) 
0

>  <ligand_id>  (266) 
77

>  <original_smiles>  (266) 
C=C(C)C1C2CC3CC45CC21C(=C)CCC12OC1CCC(C34)C1(OCCO1)C52

>  <smiles>  (266) 
[H]C([H])=C(C([H])([H])[H])C1([H])C2([H])C([H])([H])C3([H])C([H])([H])C45C([H])([H])C12C(=C([H])[H])C([H])([H])C([H])([H])C12OC1([H])C([H])([H])C([H])([H])C([H])(C1(OC([H])([H])C([H])([H])O1)C24[H])C35[H]

$$$$
77:0:1
     RDKit          3D

 60 67  0  0  1  0  0  0  0  0999 V2000
    1.5001   -9.0558    2.8745 C   0  0  0  0  0  0  0  0  0  0  0  0
    2.7961   -8.8875    2.5767 C   0  0  0  0  0  0  0  0  0  0  0  0
    3.3879   -9.4328    1.2937 C   0  0  0  0  0  0  0  0  0  0  0  0
    3.7713   -8.1947    3.4710 C   0  0  2  0  0  0  0  0  0  0  0  0
    3.4418   -6.9469    4.2809 C   0  0  2  0  0  0  0  0  0  0  0  0
    2.1551   -6.0488    4.1621 C   0  0  0  0  0  0  0  0  0  0  0  0
    2.4174   -4.5474    3.7840 C   0  0  1  0  0  0  0  0  0  0  0  0
    3.8379   -4.1825    3.9861 C   0  0  0  0  0  0  0  0  0  0  0  0
    3.9780   -4.5555    2.4836 C   0  0  1  0  0  0  0  0  0  0  0  0
    3.9397   -6.0434    2.0400 C   0  0  0  0  0  0  0  0  0  0  0  0
    4.4587   -6.8924    3.1184 C   0  0  2  0  0  0  0  0  0  0  0  0
    5.9638   -6.7126    3.2554 C   0  0  0  0  0  0  0  0  0  0  0  0
    6.5803   -6.6697    4.4521 C   0  0  0  0  0  0  0  0  0  0  0  0
    6.8047   -6.5738    1.9550 C   0  0  0  0  0  0  0  0  0  0  0  0
    7.0970   -5.1479    1.3367 C   0  0  0  0  0  0  0  0  0  0  0  0
    5.9129   -4.3397    0.7617 C   0  0  2  0  0  0  0  0  0  0  0  0
    5.3457   -5.1252   -0.3116 O   0  0  0  0  0  0  0  0  0  0  0  0
    5.6176   -3.8206   -0.6774 C   0  0  1  0  0  0  0  0  0  0  0  0
    4.3035   -3.2094   -1.1825 C   0  0  0  0  0  0  0  0  0  0  0  0
    3.0432   -3.4327   -0.2672 C   0  0  0  0  0  0  0  0  0  0  0  0
    2.9733   -2.8761    1.2133 C   0  0  1  0  0  0  0  0  0  0  0  0
    2.5459   -4.0221    2.2334 C   0  0  1  0  0  0  0  0  0  0  0  0
    4.3650   -2.3498    1.6307 C   0  0  0  0  0  0  0  0  0  0  0  0
    4.9712   -1.4996    0.7194 O   0  0  0  0  0  0  0  0  0  0  0  0
    4.2950   -0.2748    0.8810 C   0  0  0  0  0  0  0  0  0  0  0  0
    4.0985   -0.2405    2.3915 C   0  0  0  0  0  0  0  0  0  0  0  0
    4.2359   -1.5891    2.7850 O   0  0  0  0  0  0  0  0  0  0  0  0
    5.0951   -3.6898    1.8949 C   0  0  1  0  0  0  0  0  0  0  0  0
    0.8321   -9.5688    2.1914 H   0  0  0  0  0  0  0  0  0  0  0  0
    1.0800   -8.6922    3.8032 H   0  0  0  0  0  0  0  0  0  0  0  0
    4.1777  -10.1502    1.5249 H   0  0  0  0  0  0  0  0  0  0  0  0
    3.8120   -8.6380    0.6820 H   0  0  0  0  0  0  0  0  0  0  0  0
    2.6244   -9.9451    0.7062 H   0  0  0  0  0  0  0  0  0  0  0  0
    4.3999   -8.9294    3.9689 H   0  0  0  0  0  0  0  0  0  0  0  0
    3.8361   -6.9667    5.2952 H   0  0  0  0  0  0  0  0  0  0  0  0
    1.4376   -6.4792    3.4665 H   0  0  0  0  0  0  0  0  0  0  0  0
    1.6559   -6.0895    5.1311 H   0  0  0  0  0  0  0  0  0  0  0  0
    1.7968   -3.9219    4.4414 H   0  0  0  0  0  0  0  0  0  0  0  0
    3.9200   -3.1487    4.2997 H   0  0  0  0  0  0  0  0  0  0  0  0
    4.4242   -4.7604    4.6950 H   0  0  0  0  0  0  0  0  0  0  0  0
    2.9189   -6.3410    1.8054 H   0  0  0  0  0  0  0  0  0  0  0  0
    4.3907   -6.3549    1.1231 H   0  0  0  0  0  0  0  0  0  0  0  0
    6.0397   -6.7666    5.3807 H   0  0  0  0  0  0  0  0  0  0  0  0
    7.6518   -6.5392    4.5116 H   0  0  0  0  0  0  0  0  0  0  0  0
    7.7814   -7.0061    2.1819 H   0  0  0  0  0  0  0  0  0  0  0  0
    6.3978   -7.2404    1.1954 H   0  0  0  0  0  0  0  0  0  0  0  0
    7.6462   -4.5399    2.0532 H   0  0  0  0  0  0  0  0  0  0  0  0
    7.7950   -5.2978    0.5114 H   0  0  0  0  0  0  0  0  0  0  0  0
    6.4697   -3.7126   -1.3448 H   0  0  0  0  0  0  0  0  0  0  0  0
    4.4537   -2.1573   -1.4283 H   0  0  0  0  0  0  0  0  0  0  0  0
    4.1030   -3.6687   -2.1472 H   0  0  0  0  0  0  0  0  0  0  0  0
    2.1978   -3.0100   -0.8100 H   0  0  0  0  0  0  0  0  0  0  0  0
    2.8436   -4.5019   -0.2518 H   0  0  0  0  0  0  0  0  0  0  0  0
    2.2550   -2.0482    1.2040 H   0  0  0  0  0  0  0  0  0  0  0  0
    2.0359   -3.1979    2.7291 H   0  0  0  0  0  0  0  0  0  0  0  0
    4.8520    0.5720    0.4917 H   0  0  0  0  0  0  0  0  0  0  0  0
    3.3391   -0.3091    0.3612 H   0  0  0  0  0  0  0  0  0  0  0  0
    4.8784    0.3394    2.8793 H   0  0  0  0  0  0  0  0  0  0  0  0
    3.1295    0.1620    2.6853 H   0  0  0  0  0  0  0  0  0  0  0  0
    5.8181   -3.4583    2.6762 H   0  0  0  0  0  0  0  0  0  0  0  0
  1  2  2  0
  1 29  1  0
  1 30  1  0
  2  3  1  0
  2  4  1  0
  3 31  1  0
  3 32  1  0
  3 33  1  0
  4 11  1  0
  4  5  1  0
  4 34  1  1
  5 11  1  0
  5  6  1  0
  5 35  1  1
  6  7  1  0
  6 36  1  0
  6 37  1  0
  7 22  1  0
  7  8  1  0
  7 38  1  1
  9  8  1  1
  8 39  1  0
  8 40  1  0
  9 22  1  0
  9 28  1  0
  9 10  1  0
 10 11  1  0
 10 41  1  0
 10 42  1  0
 11 12  1  1
 12 13  2  0
 12 14  1  0
 13 43  1  0
 13 44  1  0
 14 15  1  0
 14 45  1  0
 14 46  1  0
 15 16  1  0
 15 47  1  0
 15 48  1  0
 16 18  1  0
 16 28  1  0
 16 17  1  6
 17 18  1  0
 18 19  1  0
 18 49  1  6
 19 20  1  0
 19 50  1  0
 19 51  1  0
 20 21  1  0
 20 52  1  0
 20 53  1  0
 21 22  1  0
 21 23  1  0
 21 54  1  6
 22 55  1  6
 23 27  1  0
 23 24  1  0
 23 28  1  0
 24 25  1  0
 25 26  1  0
 25 56  1  0
 25 57  1  0
 26 27  1  0
 26 58  1  0
 26 59  1  0
 28 60  1  1
M  END
>  <i_m_ct_stereo_status>  (267) 
1

>  <s_m_source_file>  (267) 
/var/tmp/pbs.5076255.sched01/tmpi2d1958y/88otlks1nw.sdf

>  <i_m_source_file_index>  (267) 
36

>  <i_lp_mmshare_version>  (267) 
48012

>  <i_f3d_flags>  (267) 
0

>  <s_epik_input>  (267) 
W0NAXTEyM1tDSF00W0NASF0oW0NIMl0xKVtDSDJdW0NAQEhdNVtDQF0oW0NIMl0yKShbQ0BASF01Qyg9W0NIMl0pW0NIM10pQyg9W0NIMl0pW0NIMl1bQ0gyXUM2N1tDQEBIXShPNilbQ0gyXVtDSDJdW0NAQEhdNEM4KFtDQEBIXTM3KU9bQ0gyXVtDSDJdTzg=

>  <s_epik_cmdline>  (267) 
J2VwaWtfcHl0aG9uJywgJy1waHQnLCAnMi4wJywgJy1waCcsICc3LjAnLCAnLXRuJywgJzgnLCAnLW1hJywgJzIwMCcsICctaW1hZScsICc8aW5maWxlLm1hZT4nLCAnLW9tYWUnLCAnPG91dGZpbGUubWFlPic=

>  <r_lp_tautomer_probability>  (267) 
1

>  <r_epik_Ionization_Penalty>  (267) 
1.44502e-11

>  <r_epik_Ionization_Penalty_Charging>  (267) 
0

>  <r_epik_Ionization_Penalty_Neutral>  (267) 
1.44502e-11

>  <r_epik_State_Penalty>  (267) 
-0

>  <r_epik_Charging_Adjusted_Penalty>  (267) 
0

>  <i_epik_Tot_Q>  (267) 
0

>  <i_epik_Tot_abs_Q>  (267) 
0

>  <s_lp_Force_Field>  (267) 
OPLS3e

>  <r_lp_Energy>  (267) 
174.916

>  <b_lp_Chiralities_Consistent>  (267) 
1

>  <s_lp_Variant>  (267) 
77:0-1

>  <s_i_glide_gridfile>  (267) 
pfpi4k_grid

>  <i_i_glide_lignum>  (267) 
36

>  <i_i_glide_rotatable_bonds>  (267) 
1

>  <r_i_docking_score>  (267) 
-2.5013

>  <r_i_glide_ligand_efficiency>  (267) 
-0.0893323

>  <r_i_glide_ligand_efficiency_sa>  (267) 
-0.271265

>  <r_i_glide_ligand_efficiency_ln>  (267) 
-0.577375

>  <r_i_glide_gscore>  (267) 
-2.5013

>  <r_i_glide_lipo>  (267) 
-0.533525

>  <r_i_glide_hbond>  (267) 
0

>  <r_i_glide_metal>  (267) 
-0

>  <r_i_glide_rewards>  (267) 
-0.830633

>  <r_i_glide_evdw>  (267) 
-23.8143

>  <r_i_glide_ecoul>  (267) 
-0.536142

>  <r_i_glide_erotb>  (267) 
0.133992

>  <r_i_glide_esite>  (267) 
0

>  <r_i_glide_emodel>  (267) 
-27.8426

>  <r_i_glide_energy>  (267) 
-24.3505

>  <r_i_glide_einternal>  (267) 
0.0288215

>  <r_i_glide_intrahb_reward>  (267) 
-0

>  <i_i_glide_confnum>  (267) 
4

>  <i_i_glide_posenum>  (267) 
28

>  <r_i_glide_eff_state_penalty>  (267) 
0

>  <ligand_id>  (267) 
77

>  <original_smiles>  (267) 
C=C(C)C1C2CC3CC45CC21C(=C)CCC12OC1CCC(C34)C1(OCCO1)C52

>  <smiles>  (267) 
[H]C([H])=C(C([H])([H])[H])C1([H])C2([H])C([H])([H])C3([H])C([H])([H])C45C([H])([H])C12C(=C([H])[H])C([H])([H])C([H])([H])C12OC1([H])C([H])([H])C([H])([H])C([H])(C1(OC([H])([H])C([H])([H])O1)C24[H])C35[H]

$$$$
77:0:2
     RDKit          3D

 60 67  0  0  1  0  0  0  0  0999 V2000
   -0.5812    0.7943    2.8470 C   0  0  0  0  0  0  0  0  0  0  0  0
   -0.0750    0.0510    3.8427 C   0  0  0  0  0  0  0  0  0  0  0  0
   -0.9139   -1.0106    4.5274 C   0  0  0  0  0  0  0  0  0  0  0  0
    1.3055    0.2053    4.4017 C   0  0  2  0  0  0  0  0  0  0  0  0
    2.5056    0.7094    3.6098 C   0  0  2  0  0  0  0  0  0  0  0  0
    2.6085    0.9330    2.0540 C   0  0  0  0  0  0  0  0  0  0  0  0
    3.7246    0.1146    1.3223 C   0  0  1  0  0  0  0  0  0  0  0  0
    4.7066   -0.4249    2.2824 C   0  0  0  0  0  0  0  0  0  0  0  0
    3.7873   -1.6833    2.2494 C   0  0  1  0  0  0  0  0  0  0  0  0
    2.4057   -1.6636    2.9710 C   0  0  0  0  0  0  0  0  0  0  0  0
    2.4540   -0.7462    4.1169 C   0  0  2  0  0  0  0  0  0  0  0  0
    3.3165   -1.3335    5.2255 C   0  0  0  0  0  0  0  0  0  0  0  0
    4.1651   -0.5870    5.9597 C   0  0  0  0  0  0  0  0  0  0  0  0
    3.2039   -2.8579    5.5061 C   0  0  0  0  0  0  0  0  0  0  0  0
    4.1578   -3.8819    4.7700 C   0  0  0  0  0  0  0  0  0  0  0  0
    3.9970   -4.0683    3.2473 C   0  0  2  0  0  0  0  0  0  0  0  0
    2.6494   -4.5411    3.0073 O   0  0  0  0  0  0  0  0  0  0  0  0
    3.6133   -5.3122    2.3857 C   0  0  1  0  0  0  0  0  0  0  0  0
    3.2939   -5.3266    0.8829 C   0  0  0  0  0  0  0  0  0  0  0  0
    3.0197   -3.9240    0.2249 C   0  0  0  0  0  0  0  0  0  0  0  0
    4.1099   -2.7732    0.2043 C   0  0  1  0  0  0  0  0  0  0  0  0
    3.4858   -1.4092    0.7543 C   0  0  1  0  0  0  0  0  0  0  0  0
    5.2968   -3.1555    1.1115 C   0  0  0  0  0  0  0  0  0  0  0  0
    5.7892   -4.4380    0.9174 O   0  0  0  0  0  0  0  0  0  0  0  0
    7.1822   -4.3503    0.7462 C   0  0  0  0  0  0  0  0  0  0  0  0
    7.3409   -2.9691    0.1493 C   0  0  0  0  0  0  0  0  0  0  0  0
    6.3499   -2.2770    0.8594 O   0  0  0  0  0  0  0  0  0  0  0  0
    4.6686   -2.9021    2.4985 C   0  0  1  0  0  0  0  0  0  0  0  0
   -1.5809    0.6141    2.4685 H   0  0  0  0  0  0  0  0  0  0  0  0
   -0.0207    1.5991    2.3877 H   0  0  0  0  0  0  0  0  0  0  0  0
   -1.0309   -0.7734    5.5862 H   0  0  0  0  0  0  0  0  0  0  0  0
   -0.4563   -1.9957    4.4360 H   0  0  0  0  0  0  0  0  0  0  0  0
   -1.9095   -1.0455    4.0837 H   0  0  0  0  0  0  0  0  0  0  0  0
    1.2468    0.5545    5.4298 H   0  0  0  0  0  0  0  0  0  0  0  0
    3.1312    1.4050    4.1650 H   0  0  0  0  0  0  0  0  0  0  0  0
    1.6693    0.7385    1.5395 H   0  0  0  0  0  0  0  0  0  0  0  0
    2.7925    1.9986    1.9206 H   0  0  0  0  0  0  0  0  0  0  0  0
    4.2340    0.7946    0.6277 H   0  0  0  0  0  0  0  0  0  0  0  0
    5.6869   -0.4350    1.8204 H   0  0  0  0  0  0  0  0  0  0  0  0
    4.8236    0.0770    3.2405 H   0  0  0  0  0  0  0  0  0  0  0  0
    1.6260   -1.3396    2.2854 H   0  0  0  0  0  0  0  0  0  0  0  0
    1.9389   -2.5682    3.2996 H   0  0  0  0  0  0  0  0  0  0  0  0
    4.2809    0.4736    5.8035 H   0  0  0  0  0  0  0  0  0  0  0  0
    4.7603   -1.0439    6.7367 H   0  0  0  0  0  0  0  0  0  0  0  0
    3.3971   -2.9804    6.5731 H   0  0  0  0  0  0  0  0  0  0  0  0
    2.1641   -3.1636    5.3932 H   0  0  0  0  0  0  0  0  0  0  0  0
    5.1982   -3.6633    5.0079 H   0  0  0  0  0  0  0  0  0  0  0  0
    3.9740   -4.8608    5.2159 H   0  0  0  0  0  0  0  0  0  0  0  0
    3.7770   -6.2862    2.8416 H   0  0  0  0  0  0  0  0  0  0  0  0
    4.0608   -5.8848    0.3431 H   0  0  0  0  0  0  0  0  0  0  0  0
    2.4065   -5.9458    0.7651 H   0  0  0  0  0  0  0  0  0  0  0  0
    2.7150   -4.1110   -0.8069 H   0  0  0  0  0  0  0  0  0  0  0  0
    2.1278   -3.5236    0.6992 H   0  0  0  0  0  0  0  0  0  0  0  0
    4.4762   -2.6871   -0.8259 H   0  0  0  0  0  0  0  0  0  0  0  0
    4.1210   -0.9661   -0.0086 H   0  0  0  0  0  0  0  0  0  0  0  0
    7.6694   -4.4189    1.7173 H   0  0  0  0  0  0  0  0  0  0  0  0
    7.5610   -5.1403    0.1017 H   0  0  0  0  0  0  0  0  0  0  0  0
    8.3214   -2.5283    0.3166 H   0  0  0  0  0  0  0  0  0  0  0  0
    7.1222   -2.9458   -0.9171 H   0  0  0  0  0  0  0  0  0  0  0  0
    5.5155   -2.6118    3.1173 H   0  0  0  0  0  0  0  0  0  0  0  0
  1  2  2  0
  1 29  1  0
  1 30  1  0
  2  3  1  0
  2  4  1  0
  3 31  1  0
  3 32  1  0
  3 33  1  0
  4 11  1  0
  4  5  1  0
  4 34  1  1
  5 11  1  0
  5  6  1  0
  5 35  1  1
  6  7  1  0
  6 36  1  0
  6 37  1  0
  7 22  1  0
  7  8  1  0
  7 38  1  6
  9  8  1  1
  8 39  1  0
  8 40  1  0
  9 22  1  0
  9 28  1  0
  9 10  1  0
 10 11  1  0
 10 41  1  0
 10 42  1  0
 11 12  1  1
 12 13  2  0
 12 14  1  0
 13 43  1  0
 13 44  1  0
 14 15  1  0
 14 45  1  0
 14 46  1  0
 15 16  1  0
 15 47  1  0
 15 48  1  0
 16 18  1  0
 16 28  1  0
 16 17  1  1
 17 18  1  0
 18 19  1  0
 18 49  1  1
 19 20  1  0
 19 50  1  0
 19 51  1  0
 20 21  1  0
 20 52  1  0
 20 53  1  0
 21 22  1  0
 21 23  1  0
 21 54  1  6
 22 55  1  1
 23 27  1  0
 23 24  1  0
 23 28  1  0
 24 25  1  0
 25 26  1  0
 25 56  1  0
 25 57  1  0
 26 27  1  0
 26 58  1  0
 26 59  1  0
 28 60  1  1
M  END
>  <i_m_ct_stereo_status>  (268) 
1

>  <s_m_source_file>  (268) 
/var/tmp/pbs.5076255.sched01/tmpi2d1958y/88otlks1nw.sdf

>  <i_m_source_file_index>  (268) 
36

>  <i_lp_mmshare_version>  (268) 
48012

>  <i_f3d_flags>  (268) 
0

>  <s_epik_input>  (268) 
W0NAXTEyM1tDSF00W0NASF0oW0NIMl0xKVtDSDJdW0NAQEhdNVtDQF0oW0NIMl0yKShbQ0BASF01Qyg9W0NIMl0pW0NIM10pQyg9W0NIMl0pW0NIMl1bQ0gyXUM2N1tDQEBIXShPNilbQ0gyXVtDSDJdW0NAQEhdNEM4KFtDQEBIXTM3KU9bQ0gyXVtDSDJdTzg=

>  <s_epik_cmdline>  (268) 
J2VwaWtfcHl0aG9uJywgJy1waHQnLCAnMi4wJywgJy1waCcsICc3LjAnLCAnLXRuJywgJzgnLCAnLW1hJywgJzIwMCcsICctaW1hZScsICc8aW5maWxlLm1hZT4nLCAnLW9tYWUnLCAnPG91dGZpbGUubWFlPic=

>  <r_lp_tautomer_probability>  (268) 
1

>  <r_epik_Ionization_Penalty>  (268) 
1.44502e-11

>  <r_epik_Ionization_Penalty_Charging>  (268) 
0

>  <r_epik_Ionization_Penalty_Neutral>  (268) 
1.44502e-11

>  <r_epik_State_Penalty>  (268) 
-0

>  <r_epik_Charging_Adjusted_Penalty>  (268) 
0

>  <i_epik_Tot_Q>  (268) 
0

>  <i_epik_Tot_abs_Q>  (268) 
0

>  <s_lp_Force_Field>  (268) 
OPLS3e

>  <r_lp_Energy>  (268) 
174.916

>  <b_lp_Chiralities_Consistent>  (268) 
1

>  <s_lp_Variant>  (268) 
77:0-1

>  <s_i_glide_gridfile>  (268) 
pfpi4k_grid

>  <i_i_glide_lignum>  (268) 
36

>  <i_i_glide_rotatable_bonds>  (268) 
1

>  <r_i_docking_score>  (268) 
-2.39712

>  <r_i_glide_ligand_efficiency>  (268) 
-0.0856116

>  <r_i_glide_ligand_efficiency_sa>  (268) 
-0.259967

>  <r_i_glide_ligand_efficiency_ln>  (268) 
-0.553327

>  <r_i_glide_gscore>  (268) 
-2.39712

>  <r_i_glide_lipo>  (268) 
-0.460352

>  <r_i_glide_hbond>  (268) 
0

>  <r_i_glide_metal>  (268) 
-0

>  <r_i_glide_rewards>  (268) 
-0.877089

>  <r_i_glide_evdw>  (268) 
-25.4554

>  <r_i_glide_ecoul>  (268) 
0.527305

>  <r_i_glide_erotb>  (268) 
0.133992

>  <r_i_glide_esite>  (268) 
0

>  <r_i_glide_emodel>  (268) 
-28.1801

>  <r_i_glide_energy>  (268) 
-24.9281

>  <r_i_glide_einternal>  (268) 
0.261017

>  <r_i_glide_intrahb_reward>  (268) 
-0

>  <i_i_glide_confnum>  (268) 
3

>  <i_i_glide_posenum>  (268) 
23

>  <r_i_glide_eff_state_penalty>  (268) 
0

>  <ligand_id>  (268) 
77

>  <original_smiles>  (268) 
C=C(C)C1C2CC3CC45CC21C(=C)CCC12OC1CCC(C34)C1(OCCO1)C52

>  <smiles>  (268) 
[H]C([H])=C(C([H])([H])[H])C1([H])C2([H])C([H])([H])C3([H])C([H])([H])C45C([H])([H])C12C(=C([H])[H])C([H])([H])C([H])([H])C12OC1([H])C([H])([H])C([H])([H])C([H])(C1(OC([H])([H])C([H])([H])O1)C24[H])C35[H]

$$$$
77:1:0
     RDKit          3D

 60 67  0  0  1  0  0  0  0  0999 V2000
    4.0528    0.0886    1.4457 C   0  0  0  0  0  0  0  0  0  0  0  0
    5.1580   -0.6289    1.7014 C   0  0  0  0  0  0  0  0  0  0  0  0
    5.8101   -0.5953    3.0706 C   0  0  0  0  0  0  0  0  0  0  0  0
    5.8508   -1.4670    0.6764 C   0  0  2  0  0  0  0  0  0  0  0  0
    5.1749   -2.4740   -0.2302 C   0  0  2  0  0  0  0  0  0  0  0  0
    3.6603   -2.8374   -0.1180 C   0  0  0  0  0  0  0  0  0  0  0  0
    3.3516   -4.3415    0.1323 C   0  0  1  0  0  0  0  0  0  0  0  0
    4.5059   -5.2236   -0.1640 C   0  0  0  0  0  0  0  0  0  0  0  0
    4.8233   -5.0598    1.3325 C   0  0  1  0  0  0  0  0  0  0  0  0
    5.4525   -3.7417    1.8881 C   0  0  0  0  0  0  0  0  0  0  0  0
    6.1555   -2.9590    0.8525 C   0  0  2  0  0  0  0  0  0  0  0  0
    7.5810   -3.4652    0.6693 C   0  0  0  0  0  0  0  0  0  0  0  0
    8.6211   -2.6357    0.4299 C   0  0  0  0  0  0  0  0  0  0  0  0
    7.8862   -4.9823    0.8122 C   0  0  0  0  0  0  0  0  0  0  0  0
    7.8667   -5.6928    2.2256 C   0  0  0  0  0  0  0  0  0  0  0  0
    6.5159   -6.1332    2.8489 C   0  0  1  0  0  0  0  0  0  0  0  0
    6.5382   -7.0293    3.9807 O   0  0  0  0  0  0  0  0  0  0  0  0
    6.1410   -5.6838    4.2443 C   0  0  2  0  0  0  0  0  0  0  0  0
    4.7104   -5.2880    4.6676 C   0  0  0  0  0  0  0  0  0  0  0  0
    3.4278   -5.9794    4.0964 C   0  0  0  0  0  0  0  0  0  0  0  0
    3.2010   -6.2374    2.5625 C   0  0  1  0  0  0  0  0  0  0  0  0
    3.3041   -4.9523    1.6448 C   0  0  1  0  0  0  0  0  0  0  0  0
    4.2451   -7.2658    2.1255 C   0  0  0  0  0  0  0  0  0  0  0  0
    4.4776   -8.2501    3.0785 O   0  0  0  0  0  0  0  0  0  0  0  0
    4.6698   -9.4689    2.3846 C   0  0  0  0  0  0  0  0  0  0  0  0
    4.5220   -9.0970    0.9129 C   0  0  0  0  0  0  0  0  0  0  0  0
    3.7892   -7.9005    0.9830 O   0  0  0  0  0  0  0  0  0  0  0  0
    5.4600   -6.3711    1.8001 C   0  0  1  0  0  0  0  0  0  0  0  0
    3.5920    0.6956    2.2153 H   0  0  0  0  0  0  0  0  0  0  0  0
    3.5881    0.0876    0.4704 H   0  0  0  0  0  0  0  0  0  0  0  0
    6.8411   -0.2589    2.9871 H   0  0  0  0  0  0  0  0  0  0  0  0
    5.8116   -1.5834    3.5286 H   0  0  0  0  0  0  0  0  0  0  0  0
    5.2790    0.0826    3.7412 H   0  0  0  0  0  0  0  0  0  0  0  0
    6.5709   -0.8415    0.1602 H   0  0  0  0  0  0  0  0  0  0  0  0
    5.5506   -2.5197   -1.2515 H   0  0  0  0  0  0  0  0  0  0  0  0
    3.1767   -2.2409    0.6533 H   0  0  0  0  0  0  0  0  0  0  0  0
    3.1851   -2.5210   -1.0474 H   0  0  0  0  0  0  0  0  0  0  0  0
    2.5316   -4.6358   -0.5407 H   0  0  0  0  0  0  0  0  0  0  0  0
    4.1802   -6.2075   -0.4940 H   0  0  0  0  0  0  0  0  0  0  0  0
    5.2518   -4.8654   -0.8695 H   0  0  0  0  0  0  0  0  0  0  0  0
    4.6511   -3.1270    2.2945 H   0  0  0  0  0  0  0  0  0  0  0  0
    6.1225   -3.7923    2.7323 H   0  0  0  0  0  0  0  0  0  0  0  0
    8.5217   -1.5678    0.3500 H   0  0  0  0  0  0  0  0  0  0  0  0
    9.6204   -3.0287    0.3220 H   0  0  0  0  0  0  0  0  0  0  0  0
    7.3020   -5.5278    0.0821 H   0  0  0  0  0  0  0  0  0  0  0  0
    8.9074   -5.1253    0.4531 H   0  0  0  0  0  0  0  0  0  0  0  0
    8.4607   -6.6024    2.1451 H   0  0  0  0  0  0  0  0  0  0  0  0
    8.4091   -5.0694    2.9354 H   0  0  0  0  0  0  0  0  0  0  0  0
    6.9047   -5.1324    4.7930 H   0  0  0  0  0  0  0  0  0  0  0  0
    4.6761   -5.3931    5.7497 H   0  0  0  0  0  0  0  0  0  0  0  0
    4.6217   -4.2137    4.5062 H   0  0  0  0  0  0  0  0  0  0  0  0
    3.2852   -6.9119    4.6466 H   0  0  0  0  0  0  0  0  0  0  0  0
    2.5923   -5.3573    4.4267 H   0  0  0  0  0  0  0  0  0  0  0  0
    2.2208   -6.7222    2.4944 H   0  0  0  0  0  0  0  0  0  0  0  0
    2.4652   -5.4237    1.1397 H   0  0  0  0  0  0  0  0  0  0  0  0
    5.6543   -9.8906    2.5923 H   0  0  0  0  0  0  0  0  0  0  0  0
    3.9061  -10.1902    2.6771 H   0  0  0  0  0  0  0  0  0  0  0  0
    5.5048   -8.9170    0.4731 H   0  0  0  0  0  0  0  0  0  0  0  0
    4.0049   -9.8429    0.3123 H   0  0  0  0  0  0  0  0  0  0  0  0
    5.9803   -6.8672    0.9874 H   0  0  0  0  0  0  0  0  0  0  0  0
  1  2  2  0
  1 29  1  0
  1 30  1  0
  2  3  1  0
  2  4  1  0
  3 31  1  0
  3 32  1  0
  3 33  1  0
  4 11  1  0
  4  5  1  0
  4 34  1  6
  5 11  1  0
  5  6  1  0
  5 35  1  6
  6  7  1  0
  6 36  1  0
  6 37  1  0
  7 22  1  0
  7  8  1  0
  7 38  1  6
  9  8  1  6
  8 39  1  0
  8 40  1  0
  9 22  1  0
  9 28  1  0
  9 10  1  0
 10 11  1  0
 10 41  1  0
 10 42  1  0
 11 12  1  6
 12 13  2  0
 12 14  1  0
 13 43  1  0
 13 44  1  0
 14 15  1  0
 14 45  1  0
 14 46  1  0
 15 16  1  0
 15 47  1  0
 15 48  1  0
 16 18  1  0
 16 28  1  0
 16 17  1  1
 17 18  1  0
 18 19  1  0
 18 49  1  1
 19 20  1  0
 19 50  1  0
 19 51  1  0
 20 21  1  0
 20 52  1  0
 20 53  1  0
 21 22  1  0
 21 23  1  0
 21 54  1  1
 22 55  1  1
 23 27  1  0
 23 24  1  0
 23 28  1  0
 24 25  1  0
 25 26  1  0
 25 56  1  0
 25 57  1  0
 26 27  1  0
 26 58  1  0
 26 59  1  0
 28 60  1  6
M  END
>  <i_m_ct_stereo_status>  (269) 
1

>  <s_m_source_file>  (269) 
/var/tmp/pbs.5076255.sched01/tmpi2d1958y/88otlks1nw.sdf

>  <i_m_source_file_index>  (269) 
37

>  <i_lp_mmshare_version>  (269) 
48012

>  <i_f3d_flags>  (269) 
0

>  <s_epik_input>  (269) 
W0NAXTEyM1tDSF00W0NASF0oW0NIMl0xKVtDSDJdW0NAQEhdNVtDQF0oW0NIMl0yKShbQ0BASF01Qyg9W0NIMl0pW0NIM10pQyg9W0NIMl0pW0NIMl1bQ0gyXUM2N1tDQEBIXShPNilbQ0gyXVtDSDJdW0NAQEhdNEM4KFtDQEBIXTM3KU9bQ0gyXVtDSDJdTzg=

>  <s_epik_cmdline>  (269) 
J2VwaWtfcHl0aG9uJywgJy1waHQnLCAnMi4wJywgJy1waCcsICc3LjAnLCAnLXRuJywgJzgnLCAnLW1hJywgJzIwMCcsICctaW1hZScsICc8aW5maWxlLm1hZT4nLCAnLW9tYWUnLCAnPG91dGZpbGUubWFlPic=

>  <r_lp_tautomer_probability>  (269) 
1

>  <r_epik_Ionization_Penalty>  (269) 
1.44502e-11

>  <r_epik_Ionization_Penalty_Charging>  (269) 
0

>  <r_epik_Ionization_Penalty_Neutral>  (269) 
1.44502e-11

>  <r_epik_State_Penalty>  (269) 
-0

>  <r_epik_Charging_Adjusted_Penalty>  (269) 
0

>  <i_epik_Tot_Q>  (269) 
0

>  <i_epik_Tot_abs_Q>  (269) 
0

>  <s_lp_Force_Field>  (269) 
OPLS3e

>  <r_lp_Energy>  (269) 
160.97

>  <b_lp_Chiralities_Consistent>  (269) 
1

>  <s_lp_Variant>  (269) 
77:0-2

>  <s_i_glide_gridfile>  (269) 
pfpi4k_grid

>  <i_i_glide_lignum>  (269) 
37

>  <i_i_glide_rotatable_bonds>  (269) 
1

>  <r_i_docking_score>  (269) 
-3.00908

>  <r_i_glide_ligand_efficiency>  (269) 
-0.107467

>  <r_i_glide_ligand_efficiency_sa>  (269) 
-0.326334

>  <r_i_glide_ligand_efficiency_ln>  (269) 
-0.694584

>  <r_i_glide_gscore>  (269) 
-3.00908

>  <r_i_glide_lipo>  (269) 
-0.993074

>  <r_i_glide_hbond>  (269) 
0

>  <r_i_glide_metal>  (269) 
-0

>  <r_i_glide_rewards>  (269) 
-0.844372

>  <r_i_glide_evdw>  (269) 
-25.7641

>  <r_i_glide_ecoul>  (269) 
-0.116129

>  <r_i_glide_erotb>  (269) 
0.133992

>  <r_i_glide_esite>  (269) 
0

>  <r_i_glide_emodel>  (269) 
-30.6527

>  <r_i_glide_energy>  (269) 
-25.8803

>  <r_i_glide_einternal>  (269) 
0.299594

>  <r_i_glide_intrahb_reward>  (269) 
-0

>  <i_i_glide_confnum>  (269) 
2

>  <i_i_glide_posenum>  (269) 
34

>  <r_i_glide_eff_state_penalty>  (269) 
0

>  <ligand_id>  (269) 
77

>  <original_smiles>  (269) 
C=C(C)C1C2CC3CC45CC21C(=C)CCC12OC1CCC(C34)C1(OCCO1)C52

>  <smiles>  (269) 
[H]C([H])=C(C([H])([H])[H])C1([H])C2([H])C([H])([H])C3([H])C([H])([H])C45C([H])([H])C12C(=C([H])[H])C([H])([H])C([H])([H])C12OC1([H])C([H])([H])C([H])([H])C([H])(C1(OC([H])([H])C([H])([H])O1)C24[H])C35[H]

$$$$
77:1:1
     RDKit          3D

 60 67  0  0  1  0  0  0  0  0999 V2000
    5.3695   -0.6632    3.0351 C   0  0  0  0  0  0  0  0  0  0  0  0
    4.9963   -0.6685    1.7551 C   0  0  0  0  0  0  0  0  0  0  0  0
    3.8564    0.2055    1.2743 C   0  0  0  0  0  0  0  0  0  0  0  0
    5.7167   -1.4772    0.7261 C   0  0  2  0  0  0  0  0  0  0  0  0
    5.0664   -2.4978   -0.1728 C   0  0  2  0  0  0  0  0  0  0  0  0
    3.5602   -2.8907   -0.0629 C   0  0  0  0  0  0  0  0  0  0  0  0
    3.2798   -4.3876    0.1694 C   0  0  1  0  0  0  0  0  0  0  0  0
    4.4425   -5.2445   -0.1384 C   0  0  0  0  0  0  0  0  0  0  0  0
    4.7647   -5.0824    1.3590 C   0  0  1  0  0  0  0  0  0  0  0  0
    5.3907   -3.7637    1.9248 C   0  0  0  0  0  0  0  0  0  0  0  0
    6.0631   -2.9608    0.8966 C   0  0  2  0  0  0  0  0  0  0  0  0
    7.4948   -3.4484    0.6909 C   0  0  0  0  0  0  0  0  0  0  0  0
    8.5192   -2.6083    0.4489 C   0  0  0  0  0  0  0  0  0  0  0  0
    7.8142   -4.9643    0.8109 C   0  0  0  0  0  0  0  0  0  0  0  0
    7.8165   -5.6911    2.2124 C   0  0  0  0  0  0  0  0  0  0  0  0
    6.4713   -6.1427    2.8584 C   0  0  1  0  0  0  0  0  0  0  0  0
    6.5177   -7.0593    3.9666 O   0  0  0  0  0  0  0  0  0  0  0  0
    6.1068   -5.7236    4.2459 C   0  0  2  0  0  0  0  0  0  0  0  0
    4.6741   -5.3387    4.6959 C   0  0  0  0  0  0  0  0  0  0  0  0
    3.3976   -6.0390    4.1218 C   0  0  0  0  0  0  0  0  0  0  0  0
    3.1555   -6.2880    2.5919 C   0  0  1  0  0  0  0  0  0  0  0  0
    3.2459   -4.9966    1.6806 C   0  0  1  0  0  0  0  0  0  0  0  0
    4.2103   -7.2929    2.1404 C   0  0  0  0  0  0  0  0  0  0  0  0
    4.4640   -8.2927    3.0769 O   0  0  0  0  0  0  0  0  0  0  0  0
    4.6543   -9.4961    2.3577 C   0  0  0  0  0  0  0  0  0  0  0  0
    4.4903   -9.0993    0.8974 C   0  0  0  0  0  0  0  0  0  0  0  0
    3.7515   -7.9166    0.9981 O   0  0  0  0  0  0  0  0  0  0  0  0
    5.4187   -6.3800    1.8124 C   0  0  1  0  0  0  0  0  0  0  0  0
    4.8647   -0.0555    3.7811 H   0  0  0  0  0  0  0  0  0  0  0  0
    6.2079   -1.2601    3.3783 H   0  0  0  0  0  0  0  0  0  0  0  0
    3.0534   -0.2998    0.7507 H   0  0  0  0  0  0  0  0  0  0  0  0
    4.2541    0.9436    0.5853 H   0  0  0  0  0  0  0  0  0  0  0  0
    3.4059    0.7329    2.1179 H   0  0  0  0  0  0  0  0  0  0  0  0
    6.4093   -0.8217    0.2110 H   0  0  0  0  0  0  0  0  0  0  0  0
    5.4459   -2.5092   -1.1945 H   0  0  0  0  0  0  0  0  0  0  0  0
    3.0822   -2.3824    0.7619 H   0  0  0  0  0  0  0  0  0  0  0  0
    3.0651   -2.5427   -0.9689 H   0  0  0  0  0  0  0  0  0  0  0  0
    2.4526   -4.6856   -0.4985 H   0  0  0  0  0  0  0  0  0  0  0  0
    4.1199   -6.2303   -0.4737 H   0  0  0  0  0  0  0  0  0  0  0  0
    5.1694   -4.8640   -0.8474 H   0  0  0  0  0  0  0  0  0  0  0  0
    4.5829   -3.1682    2.3443 H   0  0  0  0  0  0  0  0  0  0  0  0
    6.0615   -3.8087    2.7686 H   0  0  0  0  0  0  0  0  0  0  0  0
    8.4098   -1.5399    0.3809 H   0  0  0  0  0  0  0  0  0  0  0  0
    9.5269   -2.9884    0.3225 H   0  0  0  0  0  0  0  0  0  0  0  0
    7.2296   -5.5055    0.0761 H   0  0  0  0  0  0  0  0  0  0  0  0
    8.8352   -5.0961    0.4404 H   0  0  0  0  0  0  0  0  0  0  0  0
    8.4163   -6.5954    2.1226 H   0  0  0  0  0  0  0  0  0  0  0  0
    8.3565   -5.0718    2.9267 H   0  0  0  0  0  0  0  0  0  0  0  0
    6.8697   -5.1680    4.7974 H   0  0  0  0  0  0  0  0  0  0  0  0
    4.6546   -5.4590    5.7744 H   0  0  0  0  0  0  0  0  0  0  0  0
    4.5773   -4.2666    4.5424 H   0  0  0  0  0  0  0  0  0  0  0  0
    3.2670   -6.9793    4.6669 H   0  0  0  0  0  0  0  0  0  0  0  0
    2.5586   -5.4295    4.4693 H   0  0  0  0  0  0  0  0  0  0  0  0
    2.1815   -6.7750    2.5222 H   0  0  0  0  0  0  0  0  0  0  0  0
    2.4004   -5.4633    1.1727 H   0  0  0  0  0  0  0  0  0  0  0  0
    5.6433   -9.9099    2.5562 H   0  0  0  0  0  0  0  0  0  0  0  0
    3.9020  -10.2282    2.6489 H   0  0  0  0  0  0  0  0  0  0  0  0
    5.4641   -8.9135    0.4486 H   0  0  0  0  0  0  0  0  0  0  0  0
    3.9630   -9.8150    0.2792 H   0  0  0  0  0  0  0  0  0  0  0  0
    5.9340   -6.8594    0.9911 H   0  0  0  0  0  0  0  0  0  0  0  0
  1  2  2  0
  1 29  1  0
  1 30  1  0
  2  3  1  0
  2  4  1  0
  3 31  1  0
  3 32  1  0
  3 33  1  0
  4 11  1  0
  4  5  1  0
  4 34  1  6
  5 11  1  0
  5  6  1  0
  5 35  1  6
  6  7  1  0
  6 36  1  0
  6 37  1  0
  7 22  1  0
  7  8  1  0
  7 38  1  6
  9  8  1  6
  8 39  1  0
  8 40  1  0
  9 22  1  0
  9 28  1  0
  9 10  1  0
 10 11  1  0
 10 41  1  0
 10 42  1  0
 11 12  1  6
 12 13  2  0
 12 14  1  0
 13 43  1  0
 13 44  1  0
 14 15  1  0
 14 45  1  0
 14 46  1  0
 15 16  1  0
 15 47  1  0
 15 48  1  0
 16 18  1  0
 16 28  1  0
 16 17  1  1
 17 18  1  0
 18 19  1  0
 18 49  1  1
 19 20  1  0
 19 50  1  0
 19 51  1  0
 20 21  1  0
 20 52  1  0
 20 53  1  0
 21 22  1  0
 21 23  1  0
 21 54  1  1
 22 55  1  1
 23 27  1  0
 23 24  1  0
 23 28  1  0
 24 25  1  0
 25 26  1  0
 25 56  1  0
 25 57  1  0
 26 27  1  0
 26 58  1  0
 26 59  1  0
 28 60  1  6
M  END
>  <i_m_ct_stereo_status>  (270) 
1

>  <s_m_source_file>  (270) 
/var/tmp/pbs.5076255.sched01/tmpi2d1958y/88otlks1nw.sdf

>  <i_m_source_file_index>  (270) 
37

>  <i_lp_mmshare_version>  (270) 
48012

>  <i_f3d_flags>  (270) 
0

>  <s_epik_input>  (270) 
W0NAXTEyM1tDSF00W0NASF0oW0NIMl0xKVtDSDJdW0NAQEhdNVtDQF0oW0NIMl0yKShbQ0BASF01Qyg9W0NIMl0pW0NIM10pQyg9W0NIMl0pW0NIMl1bQ0gyXUM2N1tDQEBIXShPNilbQ0gyXVtDSDJdW0NAQEhdNEM4KFtDQEBIXTM3KU9bQ0gyXVtDSDJdTzg=

>  <s_epik_cmdline>  (270) 
J2VwaWtfcHl0aG9uJywgJy1waHQnLCAnMi4wJywgJy1waCcsICc3LjAnLCAnLXRuJywgJzgnLCAnLW1hJywgJzIwMCcsICctaW1hZScsICc8aW5maWxlLm1hZT4nLCAnLW9tYWUnLCAnPG91dGZpbGUubWFlPic=

>  <r_lp_tautomer_probability>  (270) 
1

>  <r_epik_Ionization_Penalty>  (270) 
1.44502e-11

>  <r_epik_Ionization_Penalty_Charging>  (270) 
0

>  <r_epik_Ionization_Penalty_Neutral>  (270) 
1.44502e-11

>  <r_epik_State_Penalty>  (270) 
-0

>  <r_epik_Charging_Adjusted_Penalty>  (270) 
0

>  <i_epik_Tot_Q>  (270) 
0

>  <i_epik_Tot_abs_Q>  (270) 
0

>  <s_lp_Force_Field>  (270) 
OPLS3e

>  <r_lp_Energy>  (270) 
160.97

>  <b_lp_Chiralities_Consistent>  (270) 
1

>  <s_lp_Variant>  (270) 
77:0-2

>  <s_i_glide_gridfile>  (270) 
pfpi4k_grid

>  <i_i_glide_lignum>  (270) 
37

>  <i_i_glide_rotatable_bonds>  (270) 
1

>  <r_i_docking_score>  (270) 
-2.9768

>  <r_i_glide_ligand_efficiency>  (270) 
-0.106314

>  <r_i_glide_ligand_efficiency_sa>  (270) 
-0.322833

>  <r_i_glide_ligand_efficiency_ln>  (270) 
-0.687133

>  <r_i_glide_gscore>  (270) 
-2.9768

>  <r_i_glide_lipo>  (270) 
-0.998228

>  <r_i_glide_hbond>  (270) 
0

>  <r_i_glide_metal>  (270) 
-0

>  <r_i_glide_rewards>  (270) 
-0.842693

>  <r_i_glide_evdw>  (270) 
-25.3031

>  <r_i_glide_ecoul>  (270) 
-0.031439

>  <r_i_glide_erotb>  (270) 
0.133992

>  <r_i_glide_esite>  (270) 
0

>  <r_i_glide_emodel>  (270) 
-29.4663

>  <r_i_glide_energy>  (270) 
-25.3346

>  <r_i_glide_einternal>  (270) 
0.434396

>  <r_i_glide_intrahb_reward>  (270) 
-0

>  <i_i_glide_confnum>  (270) 
2

>  <i_i_glide_posenum>  (270) 
1

>  <r_i_glide_eff_state_penalty>  (270) 
0

>  <ligand_id>  (270) 
77

>  <original_smiles>  (270) 
C=C(C)C1C2CC3CC45CC21C(=C)CCC12OC1CCC(C34)C1(OCCO1)C52

>  <smiles>  (270) 
[H]C([H])=C(C([H])([H])[H])C1([H])C2([H])C([H])([H])C3([H])C([H])([H])C45C([H])([H])C12C(=C([H])[H])C([H])([H])C([H])([H])C12OC1([H])C([H])([H])C([H])([H])C([H])(C1(OC([H])([H])C([H])([H])O1)C24[H])C35[H]

$$$$
77:1:2
     RDKit          3D

 60 67  0  0  1  0  0  0  0  0999 V2000
    5.3740   -1.2112    2.4270 C   0  0  0  0  0  0  0  0  0  0  0  0
    4.9759   -1.4347    1.1664 C   0  0  0  0  0  0  0  0  0  0  0  0
    3.8686   -0.6087    0.5306 C   0  0  0  0  0  0  0  0  0  0  0  0
    5.6152   -2.4660    0.2915 C   0  0  2  0  0  0  0  0  0  0  0  0
    4.8997   -3.6489   -0.3182 C   0  0  2  0  0  0  0  0  0  0  0  0
    3.4025   -3.9752   -0.0190 C   0  0  0  0  0  0  0  0  0  0  0  0
    3.1282   -5.3877    0.5617 C   0  0  1  0  0  0  0  0  0  0  0  0
    4.2667   -6.3167    0.3686 C   0  0  0  0  0  0  0  0  0  0  0  0
    4.6965   -5.8458    1.7684 C   0  0  1  0  0  0  0  0  0  0  0  0
    5.3555   -4.4389    1.9889 C   0  0  0  0  0  0  0  0  0  0  0  0
    5.9666   -3.8853    0.7632 C   0  0  2  0  0  0  0  0  0  0  0  0
    7.3799   -4.4233    0.5798 C   0  0  0  0  0  0  0  0  0  0  0  0
    8.3871   -3.6712    0.0870 C   0  0  0  0  0  0  0  0  0  0  0  0
    7.7089   -5.8768    1.0211 C   0  0  0  0  0  0  0  0  0  0  0  0
    7.7994   -6.2595    2.5535 C   0  0  0  0  0  0  0  0  0  0  0  0
    6.5014   -6.5788    3.3481 C   0  0  1  0  0  0  0  0  0  0  0  0
    6.6216   -7.2066    4.6428 O   0  0  0  0  0  0  0  0  0  0  0  0
    6.2327   -5.8330    4.6366 C   0  0  2  0  0  0  0  0  0  0  0  0
    4.8379   -5.3412    5.0779 C   0  0  0  0  0  0  0  0  0  0  0  0
    3.5201   -6.1239    4.7689 C   0  0  0  0  0  0  0  0  0  0  0  0
    3.1761   -6.7013    3.3490 C   0  0  1  0  0  0  0  0  0  0  0  0
    3.2055   -5.6522    2.1661 C   0  0  1  0  0  0  0  0  0  0  0  0
    4.1777   -7.8192    3.0598 C   0  0  0  0  0  0  0  0  0  0  0  0
    4.4808   -8.5693    4.1937 O   0  0  0  0  0  0  0  0  0  0  0  0
    4.3476   -9.9232    3.8294 C   0  0  0  0  0  0  0  0  0  0  0  0
    3.2775   -9.8614    2.7567 C   0  0  0  0  0  0  0  0  0  0  0  0
    3.6290   -8.6690    2.1008 O   0  0  0  0  0  0  0  0  0  0  0  0
    5.3679   -7.0401    2.4602 C   0  0  1  0  0  0  0  0  0  0  0  0
    4.8991   -0.4527    3.0375 H   0  0  0  0  0  0  0  0  0  0  0  0
    6.1832   -1.7769    2.8700 H   0  0  0  0  0  0  0  0  0  0  0  0
    3.0540   -1.2139    0.1358 H   0  0  0  0  0  0  0  0  0  0  0  0
    4.2675   -0.0236   -0.2971 H   0  0  0  0  0  0  0  0  0  0  0  0
    3.4339    0.0791    1.2588 H   0  0  0  0  0  0  0  0  0  0  0  0
    6.2698   -1.9629   -0.4105 H   0  0  0  0  0  0  0  0  0  0  0  0
    5.1987   -3.8948   -1.3356 H   0  0  0  0  0  0  0  0  0  0  0  0
    2.9785   -3.2482    0.6678 H   0  0  0  0  0  0  0  0  0  0  0  0
    2.8563   -3.8497   -0.9549 H   0  0  0  0  0  0  0  0  0  0  0  0
    2.2585   -5.8064    0.0342 H   0  0  0  0  0  0  0  0  0  0  0  0
    3.9283   -7.3456    0.2732 H   0  0  0  0  0  0  0  0  0  0  0  0
    4.9520   -6.1100   -0.4505 H   0  0  0  0  0  0  0  0  0  0  0  0
    4.5797   -3.7536    2.3186 H   0  0  0  0  0  0  0  0  0  0  0  0
    6.0826   -4.3034    2.7752 H   0  0  0  0  0  0  0  0  0  0  0  0
    8.2669   -2.6466   -0.2196 H   0  0  0  0  0  0  0  0  0  0  0  0
    9.3798   -4.0834   -0.0117 H   0  0  0  0  0  0  0  0  0  0  0  0
    7.0722   -6.5695    0.4799 H   0  0  0  0  0  0  0  0  0  0  0  0
    8.7017   -6.1027    0.6222 H   0  0  0  0  0  0  0  0  0  0  0  0
    8.4091   -7.1602    2.6185 H   0  0  0  0  0  0  0  0  0  0  0  0
    8.3690   -5.4943    3.0829 H   0  0  0  0  0  0  0  0  0  0  0  0
    7.0305   -5.1808    4.9888 H   0  0  0  0  0  0  0  0  0  0  0  0
    4.8917   -5.2155    6.1586 H   0  0  0  0  0  0  0  0  0  0  0  0
    4.7284   -4.3235    4.7009 H   0  0  0  0  0  0  0  0  0  0  0  0
    3.4287   -6.9145    5.5162 H   0  0  0  0  0  0  0  0  0  0  0  0
    2.7093   -5.4394    5.0246 H   0  0  0  0  0  0  0  0  0  0  0  0
    2.1942   -7.1712    3.4691 H   0  0  0  0  0  0  0  0  0  0  0  0
    2.3282   -6.2094    1.8436 H   0  0  0  0  0  0  0  0  0  0  0  0
    5.2897  -10.2828    3.4142 H   0  0  0  0  0  0  0  0  0  0  0  0
    4.0639  -10.5520    4.6727 H   0  0  0  0  0  0  0  0  0  0  0  0
    3.2977  -10.7145    2.0819 H   0  0  0  0  0  0  0  0  0  0  0  0
    2.2772   -9.7759    3.1831 H   0  0  0  0  0  0  0  0  0  0  0  0
    5.8084   -7.7380    1.7492 H   0  0  0  0  0  0  0  0  0  0  0  0
  1  2  2  0
  1 29  1  0
  1 30  1  0
  2  3  1  0
  2  4  1  0
  3 31  1  0
  3 32  1  0
  3 33  1  0
  4 11  1  0
  4  5  1  0
  4 34  1  6
  5 11  1  0
  5  6  1  0
  5 35  1  6
  6  7  1  0
  6 36  1  0
  6 37  1  0
  7 22  1  0
  7  8  1  0
  7 38  1  6
  9  8  1  6
  8 39  1  0
  8 40  1  0
  9 22  1  0
  9 28  1  0
  9 10  1  0
 10 11  1  0
 10 41  1  0
 10 42  1  0
 11 12  1  6
 12 13  2  0
 12 14  1  0
 13 43  1  0
 13 44  1  0
 14 15  1  0
 14 45  1  0
 14 46  1  0
 15 16  1  0
 15 47  1  0
 15 48  1  0
 16 18  1  0
 16 28  1  0
 16 17  1  1
 17 18  1  0
 18 19  1  0
 18 49  1  1
 19 20  1  0
 19 50  1  0
 19 51  1  0
 20 21  1  0
 20 52  1  0
 20 53  1  0
 21 22  1  0
 21 23  1  0
 21 54  1  1
 22 55  1  1
 23 27  1  0
 23 24  1  0
 23 28  1  0
 24 25  1  0
 25 26  1  0
 25 56  1  0
 25 57  1  0
 26 27  1  0
 26 58  1  0
 26 59  1  0
 28 60  1  6
M  END
>  <i_m_ct_stereo_status>  (271) 
1

>  <s_m_source_file>  (271) 
/var/tmp/pbs.5076255.sched01/tmpi2d1958y/88otlks1nw.sdf

>  <i_m_source_file_index>  (271) 
37

>  <i_lp_mmshare_version>  (271) 
48012

>  <i_f3d_flags>  (271) 
0

>  <s_epik_input>  (271) 
W0NAXTEyM1tDSF00W0NASF0oW0NIMl0xKVtDSDJdW0NAQEhdNVtDQF0oW0NIMl0yKShbQ0BASF01Qyg9W0NIMl0pW0NIM10pQyg9W0NIMl0pW0NIMl1bQ0gyXUM2N1tDQEBIXShPNilbQ0gyXVtDSDJdW0NAQEhdNEM4KFtDQEBIXTM3KU9bQ0gyXVtDSDJdTzg=

>  <s_epik_cmdline>  (271) 
J2VwaWtfcHl0aG9uJywgJy1waHQnLCAnMi4wJywgJy1waCcsICc3LjAnLCAnLXRuJywgJzgnLCAnLW1hJywgJzIwMCcsICctaW1hZScsICc8aW5maWxlLm1hZT4nLCAnLW9tYWUnLCAnPG91dGZpbGUubWFlPic=

>  <r_lp_tautomer_probability>  (271) 
1

>  <r_epik_Ionization_Penalty>  (271) 
1.44502e-11

>  <r_epik_Ionization_Penalty_Charging>  (271) 
0

>  <r_epik_Ionization_Penalty_Neutral>  (271) 
1.44502e-11

>  <r_epik_State_Penalty>  (271) 
-0

>  <r_epik_Charging_Adjusted_Penalty>  (271) 
0

>  <i_epik_Tot_Q>  (271) 
0

>  <i_epik_Tot_abs_Q>  (271) 
0

>  <s_lp_Force_Field>  (271) 
OPLS3e

>  <r_lp_Energy>  (271) 
160.97

>  <b_lp_Chiralities_Consistent>  (271) 
1

>  <s_lp_Variant>  (271) 
77:0-2

>  <s_i_glide_gridfile>  (271) 
pfpi4k_grid

>  <i_i_glide_lignum>  (271) 
37

>  <i_i_glide_rotatable_bonds>  (271) 
1

>  <r_i_docking_score>  (271) 
-2.79695

>  <r_i_glide_ligand_efficiency>  (271) 
-0.0998909

>  <r_i_glide_ligand_efficiency_sa>  (271) 
-0.303328

>  <r_i_glide_ligand_efficiency_ln>  (271) 
-0.645617

>  <r_i_glide_gscore>  (271) 
-2.79695

>  <r_i_glide_lipo>  (271) 
-0.877385

>  <r_i_glide_hbond>  (271) 
0

>  <r_i_glide_metal>  (271) 
-0

>  <r_i_glide_rewards>  (271) 
-0.814638

>  <r_i_glide_evdw>  (271) 
-24.8926

>  <r_i_glide_ecoul>  (271) 
0.042729

>  <r_i_glide_erotb>  (271) 
0.133992

>  <r_i_glide_esite>  (271) 
-0.000693164

>  <r_i_glide_emodel>  (271) 
-29.2622

>  <r_i_glide_energy>  (271) 
-24.8499

>  <r_i_glide_einternal>  (271) 
0.150744

>  <r_i_glide_intrahb_reward>  (271) 
-0

>  <i_i_glide_confnum>  (271) 
4

>  <i_i_glide_posenum>  (271) 
8

>  <r_i_glide_eff_state_penalty>  (271) 
0

>  <ligand_id>  (271) 
77

>  <original_smiles>  (271) 
C=C(C)C1C2CC3CC45CC21C(=C)CCC12OC1CCC(C34)C1(OCCO1)C52

>  <smiles>  (271) 
[H]C([H])=C(C([H])([H])[H])C1([H])C2([H])C([H])([H])C3([H])C([H])([H])C45C([H])([H])C12C(=C([H])[H])C([H])([H])C([H])([H])C12OC1([H])C([H])([H])C([H])([H])C([H])(C1(OC([H])([H])C([H])([H])O1)C24[H])C35[H]

$$$$
77:2:0
     RDKit          3D

 60 67  0  0  1  0  0  0  0  0999 V2000
    6.3440   -0.8308    1.8211 C   0  0  0  0  0  0  0  0  0  0  0  0
    5.0840   -1.0656    2.2368 C   0  0  0  0  0  0  0  0  0  0  0  0
    4.7787   -1.2390    3.7152 C   0  0  0  0  0  0  0  0  0  0  0  0
    3.9928   -1.0943    1.2173 C   0  0  2  0  0  0  0  0  0  0  0  0
    2.6387   -1.5815    1.2847 C   0  0  2  0  0  0  0  0  0  0  0  0
    2.1297   -2.4158    2.5084 C   0  0  0  0  0  0  0  0  0  0  0  0
    2.6753   -3.8665    2.8278 C   0  0  1  0  0  0  0  0  0  0  0  0
    2.2015   -5.0327    1.9541 C   0  0  0  0  0  0  0  0  0  0  0  0
    3.3497   -4.5922    0.9860 C   0  0  1  0  0  0  0  0  0  0  0  0
    2.8731   -3.5361    0.0271 C   0  0  0  0  0  0  0  0  0  0  0  0
    3.5546   -2.1863    0.1538 C   0  0  2  0  0  0  0  0  0  0  0  0
    3.9807   -1.7787   -1.2329 C   0  0  0  0  0  0  0  0  0  0  0  0
    3.3401   -0.8956   -2.0512 C   0  0  0  0  0  0  0  0  0  0  0  0
    5.2176   -2.4799   -1.7993 C   0  0  0  0  0  0  0  0  0  0  0  0
    5.3579   -4.0438   -1.6738 C   0  0  0  0  0  0  0  0  0  0  0  0
    5.5831   -4.6296   -0.2602 C   0  0  2  0  0  0  0  0  0  0  0  0
    6.1392   -3.5658    0.5425 O   0  0  0  0  0  0  0  0  0  0  0  0
    6.9869   -4.6581    0.3972 C   0  0  1  0  0  0  0  0  0  0  0  0
    7.4098   -5.1686    1.7686 C   0  0  0  0  0  0  0  0  0  0  0  0
    6.3538   -5.2533    2.9376 C   0  0  0  0  0  0  0  0  0  0  0  0
    4.8760   -5.5867    2.6639 C   0  0  1  0  0  0  0  0  0  0  0  0
    4.0595   -4.2824    2.3080 C   0  0  2  0  0  0  0  0  0  0  0  0
    4.7292   -6.5258    1.4319 C   0  0  0  0  0  0  0  0  0  0  0  0
    5.8699   -7.2782    1.1910 O   0  0  0  0  0  0  0  0  0  0  0  0
    5.4627   -8.6219    1.1041 C   0  0  0  0  0  0  0  0  0  0  0  0
    4.2242   -8.6594    1.9606 C   0  0  0  0  0  0  0  0  0  0  0  0
    3.6667   -7.4278    1.5862 O   0  0  0  0  0  0  0  0  0  0  0  0
    4.3819   -5.5055    0.3050 C   0  0  1  0  0  0  0  0  0  0  0  0
    7.1052   -0.7308    2.5720 H   0  0  0  0  0  0  0  0  0  0  0  0
    6.5778   -0.7170    0.7698 H   0  0  0  0  0  0  0  0  0  0  0  0
    4.0796   -0.4527    4.0039 H   0  0  0  0  0  0  0  0  0  0  0  0
    5.6782   -1.0340    4.2919 H   0  0  0  0  0  0  0  0  0  0  0  0
    4.4123   -2.2430    3.9805 H   0  0  0  0  0  0  0  0  0  0  0  0
    4.0347   -0.1067    0.7793 H   0  0  0  0  0  0  0  0  0  0  0  0
    1.9097   -0.8407    0.9432 H   0  0  0  0  0  0  0  0  0  0  0  0
    2.2119   -1.7778    3.3773 H   0  0  0  0  0  0  0  0  0  0  0  0
    1.0540   -2.4661    2.3845 H   0  0  0  0  0  0  0  0  0  0  0  0
    2.5329   -4.1243    3.8825 H   0  0  0  0  0  0  0  0  0  0  0  0
    2.2978   -5.9444    2.5622 H   0  0  0  0  0  0  0  0  0  0  0  0
    1.1965   -4.9183    1.5709 H   0  0  0  0  0  0  0  0  0  0  0  0
    2.9200   -3.9066   -0.9828 H   0  0  0  0  0  0  0  0  0  0  0  0
    1.8017   -3.3988    0.0902 H   0  0  0  0  0  0  0  0  0  0  0  0
    2.4253   -0.4458   -1.7416 H   0  0  0  0  0  0  0  0  0  0  0  0
    3.7235   -0.6660   -3.0420 H   0  0  0  0  0  0  0  0  0  0  0  0
    5.2200   -2.2714   -2.8757 H   0  0  0  0  0  0  0  0  0  0  0  0
    6.0969   -1.9919   -1.3765 H   0  0  0  0  0  0  0  0  0  0  0  0
    4.5590   -4.5623   -2.1988 H   0  0  0  0  0  0  0  0  0  0  0  0
    6.2452   -4.2702   -2.2569 H   0  0  0  0  0  0  0  0  0  0  0  0
    7.8174   -4.5214   -0.3045 H   0  0  0  0  0  0  0  0  0  0  0  0
    7.8961   -6.1301    1.6131 H   0  0  0  0  0  0  0  0  0  0  0  0
    8.2271   -4.5412    2.0851 H   0  0  0  0  0  0  0  0  0  0  0  0
    6.7536   -5.9772    3.6647 H   0  0  0  0  0  0  0  0  0  0  0  0
    6.2345   -4.2961    3.4518 H   0  0  0  0  0  0  0  0  0  0  0  0
    4.4702   -6.0760    3.5434 H   0  0  0  0  0  0  0  0  0  0  0  0
    4.6860   -3.4122    2.2675 H   0  0  0  0  0  0  0  0  0  0  0  0
    5.1735   -8.8471    0.0862 H   0  0  0  0  0  0  0  0  0  0  0  0
    6.2500   -9.3078    1.4135 H   0  0  0  0  0  0  0  0  0  0  0  0
    3.5564   -9.4763    1.7178 H   0  0  0  0  0  0  0  0  0  0  0  0
    4.4555   -8.6968    3.0226 H   0  0  0  0  0  0  0  0  0  0  0  0
    3.9423   -6.0906   -0.5056 H   0  0  0  0  0  0  0  0  0  0  0  0
  1  2  2  0
  1 29  1  0
  1 30  1  0
  2  3  1  0
  2  4  1  0
  3 31  1  0
  3 32  1  0
  3 33  1  0
  4 11  1  0
  4  5  1  0
  4 34  1  6
  5 11  1  0
  5  6  1  0
  5 35  1  6
  6  7  1  0
  6 36  1  0
  6 37  1  0
  7 22  1  0
  7  8  1  0
  7 38  1  1
  9  8  1  1
  8 39  1  0
  8 40  1  0
  9 22  1  0
  9 28  1  0
  9 10  1  0
 10 11  1  0
 10 41  1  0
 10 42  1  0
 11 12  1  6
 12 13  2  0
 12 14  1  0
 13 43  1  0
 13 44  1  0
 14 15  1  0
 14 45  1  0
 14 46  1  0
 15 16  1  0
 15 47  1  0
 15 48  1  0
 16 18  1  0
 16 28  1  0
 16 17  1  1
 17 18  1  0
 18 19  1  0
 18 49  1  6
 19 20  1  0
 19 50  1  0
 19 51  1  0
 20 21  1  0
 20 52  1  0
 20 53  1  0
 21 22  1  0
 21 23  1  0
 21 54  1  1
 22 55  1  6
 23 27  1  0
 23 24  1  0
 23 28  1  0
 24 25  1  0
 25 26  1  0
 25 56  1  0
 25 57  1  0
 26 27  1  0
 26 58  1  0
 26 59  1  0
 28 60  1  6
M  END
>  <i_m_ct_stereo_status>  (272) 
1

>  <s_m_source_file>  (272) 
/var/tmp/pbs.5076255.sched01/tmpi2d1958y/88otlks1nw.sdf

>  <i_m_source_file_index>  (272) 
38

>  <i_lp_mmshare_version>  (272) 
48012

>  <i_f3d_flags>  (272) 
0

>  <s_epik_input>  (272) 
W0NAXTEyM1tDSF00W0NASF0oW0NIMl0xKVtDSDJdW0NAQEhdNVtDQF0oW0NIMl0yKShbQ0BASF01Qyg9W0NIMl0pW0NIM10pQyg9W0NIMl0pW0NIMl1bQ0gyXUM2N1tDQEBIXShPNilbQ0gyXVtDSDJdW0NAQEhdNEM4KFtDQEBIXTM3KU9bQ0gyXVtDSDJdTzg=

>  <s_epik_cmdline>  (272) 
J2VwaWtfcHl0aG9uJywgJy1waHQnLCAnMi4wJywgJy1waCcsICc3LjAnLCAnLXRuJywgJzgnLCAnLW1hJywgJzIwMCcsICctaW1hZScsICc8aW5maWxlLm1hZT4nLCAnLW9tYWUnLCAnPG91dGZpbGUubWFlPic=

>  <r_lp_tautomer_probability>  (272) 
1

>  <r_epik_Ionization_Penalty>  (272) 
1.44502e-11

>  <r_epik_Ionization_Penalty_Charging>  (272) 
0

>  <r_epik_Ionization_Penalty_Neutral>  (272) 
1.44502e-11

>  <r_epik_State_Penalty>  (272) 
-0

>  <r_epik_Charging_Adjusted_Penalty>  (272) 
0

>  <i_epik_Tot_Q>  (272) 
0

>  <i_epik_Tot_abs_Q>  (272) 
0

>  <s_lp_Force_Field>  (272) 
OPLS3e

>  <r_lp_Energy>  (272) 
134.645

>  <b_lp_Chiralities_Consistent>  (272) 
1

>  <s_lp_Variant>  (272) 
77:0-3

>  <s_i_glide_gridfile>  (272) 
pfpi4k_grid

>  <i_i_glide_lignum>  (272) 
38

>  <i_i_glide_rotatable_bonds>  (272) 
1

>  <r_i_docking_score>  (272) 
-2.15461

>  <r_i_glide_ligand_efficiency>  (272) 
-0.0769503

>  <r_i_glide_ligand_efficiency_sa>  (272) 
-0.233666

>  <r_i_glide_ligand_efficiency_ln>  (272) 
-0.497347

>  <r_i_glide_gscore>  (272) 
-2.15461

>  <r_i_glide_lipo>  (272) 
-0.55515

>  <r_i_glide_hbond>  (272) 
0

>  <r_i_glide_metal>  (272) 
-0

>  <r_i_glide_rewards>  (272) 
-0.915913

>  <r_i_glide_evdw>  (272) 
-12.8591

>  <r_i_glide_ecoul>  (272) 
-1.16389

>  <r_i_glide_erotb>  (272) 
0.133992

>  <r_i_glide_esite>  (272) 
0

>  <r_i_glide_emodel>  (272) 
-13.805

>  <r_i_glide_energy>  (272) 
-14.023

>  <r_i_glide_einternal>  (272) 
4.30329

>  <r_i_glide_intrahb_reward>  (272) 
-0

>  <i_i_glide_confnum>  (272) 
4

>  <i_i_glide_posenum>  (272) 
3

>  <r_i_glide_eff_state_penalty>  (272) 
0

>  <ligand_id>  (272) 
77

>  <original_smiles>  (272) 
C=C(C)C1C2CC3CC45CC21C(=C)CCC12OC1CCC(C34)C1(OCCO1)C52

>  <smiles>  (272) 
[H]C([H])=C(C([H])([H])[H])C1([H])C2([H])C([H])([H])C3([H])C([H])([H])C45C([H])([H])C12C(=C([H])[H])C([H])([H])C([H])([H])C12OC1([H])C([H])([H])C([H])([H])C([H])(C1(OC([H])([H])C([H])([H])O1)C24[H])C35[H]

$$$$
77:2:1
     RDKit          3D

 60 67  0  0  1  0  0  0  0  0999 V2000
   -0.3868    5.4718    3.4996 C   0  0  0  0  0  0  0  0  0  0  0  0
   -0.8285    4.5859    4.4525 C   0  0  0  0  0  0  0  0  0  0  0  0
   -1.9980    3.6440    4.1765 C   0  0  0  0  0  0  0  0  0  0  0  0
   -0.2655    4.5328    5.8468 C   0  0  2  0  0  0  0  0  0  0  0  0
    1.0588    4.8276    6.4042 C   0  0  2  0  0  0  0  0  0  0  0  0
    2.3286    5.1192    5.5065 C   0  0  0  0  0  0  0  0  0  0  0  0
    2.9875    3.9795    4.6374 C   0  0  1  0  0  0  0  0  0  0  0  0
    3.7702    2.8917    5.3805 C   0  0  0  0  0  0  0  0  0  0  0  0
    2.4170    2.1602    5.5326 C   0  0  1  0  0  0  0  0  0  0  0  0
    1.7607    2.6273    6.7870 C   0  0  0  0  0  0  0  0  0  0  0  0
    0.4519    3.3709    6.6003 C   0  0  2  0  0  0  0  0  0  0  0  0
   -0.4815    2.7483    7.5803 C   0  0  0  0  0  0  0  0  0  0  0  0
   -0.8401    3.3403    8.7343 C   0  0  0  0  0  0  0  0  0  0  0  0
   -1.0216    1.3593    7.1796 C   0  0  0  0  0  0  0  0  0  0  0  0
   -0.0651    0.2011    6.6645 C   0  0  0  0  0  0  0  0  0  0  0  0
    0.6124    0.4122    5.2811 C   0  0  2  0  0  0  0  0  0  0  0  0
   -0.1709    1.3538    4.5793 O   0  0  0  0  0  0  0  0  0  0  0  0
   -0.1625    0.1426    3.9337 C   0  0  1  0  0  0  0  0  0  0  0  0
    0.2363    0.3631    2.4738 C   0  0  0  0  0  0  0  0  0  0  0  0
    1.2785    1.4496    2.1124 C   0  0  0  0  0  0  0  0  0  0  0  0
    2.4697    1.7108    3.0934 C   0  0  1  0  0  0  0  0  0  0  0  0
    2.1233    2.8050    4.1699 C   0  0  2  0  0  0  0  0  0  0  0  0
    2.8675    0.4224    3.9207 C   0  0  0  0  0  0  0  0  0  0  0  0
    2.4964   -0.7670    3.2936 O   0  0  0  0  0  0  0  0  0  0  0  0
    3.5004   -0.9501    2.2996 C   0  0  0  0  0  0  0  0  0  0  0  0
    4.7334   -0.4638    3.0391 C   0  0  0  0  0  0  0  0  0  0  0  0
    4.2460    0.3396    4.1039 O   0  0  0  0  0  0  0  0  0  0  0  0
    2.1759    0.6568    5.2856 C   0  0  1  0  0  0  0  0  0  0  0  0
   -0.8400    5.4440    2.5383 H   0  0  0  0  0  0  0  0  0  0  0  0
    0.3875    6.2192    3.6488 H   0  0  0  0  0  0  0  0  0  0  0  0
   -1.8529    2.6556    4.4737 H   0  0  0  0  0  0  0  0  0  0  0  0
   -2.2192    3.6815    3.1028 H   0  0  0  0  0  0  0  0  0  0  0  0
   -2.8918    4.0118    4.6920 H   0  0  0  0  0  0  0  0  0  0  0  0
   -1.0031    5.0482    6.4443 H   0  0  0  0  0  0  0  0  0  0  0  0
    1.0833    5.4401    7.2883 H   0  0  0  0  0  0  0  0  0  0  0  0
    2.0898    5.9738    4.8790 H   0  0  0  0  0  0  0  0  0  0  0  0
    3.0942    5.5082    6.1933 H   0  0  0  0  0  0  0  0  0  0  0  0
    3.5918    4.3858    3.8362 H   0  0  0  0  0  0  0  0  0  0  0  0
    4.5299    2.4879    4.7176 H   0  0  0  0  0  0  0  0  0  0  0  0
    4.2341    3.2482    6.3083 H   0  0  0  0  0  0  0  0  0  0  0  0
    1.6618    1.8017    7.5045 H   0  0  0  0  0  0  0  0  0  0  0  0
    2.4193    3.2427    7.3854 H   0  0  0  0  0  0  0  0  0  0  0  0
   -0.4556    4.3213    9.0144 H   0  0  0  0  0  0  0  0  0  0  0  0
   -1.5411    2.8857    9.4220 H   0  0  0  0  0  0  0  0  0  0  0  0
   -1.5178    0.9827    8.0533 H   0  0  0  0  0  0  0  0  0  0  0  0
   -1.8394    1.5256    6.4726 H   0  0  0  0  0  0  0  0  0  0  0  0
    0.6734   -0.0794    7.4455 H   0  0  0  0  0  0  0  0  0  0  0  0
   -0.6927   -0.6777    6.5729 H   0  0  0  0  0  0  0  0  0  0  0  0
   -1.0856   -0.4014    4.0370 H   0  0  0  0  0  0  0  0  0  0  0  0
    0.4926   -0.6049    2.0064 H   0  0  0  0  0  0  0  0  0  0  0  0
   -0.7127    0.6128    1.9467 H   0  0  0  0  0  0  0  0  0  0  0  0
    1.6692    1.1678    1.1584 H   0  0  0  0  0  0  0  0  0  0  0  0
    0.7672    2.3951    1.9105 H   0  0  0  0  0  0  0  0  0  0  0  0
    3.3314    2.0401    2.4984 H   0  0  0  0  0  0  0  0  0  0  0  0
    1.1429    3.2124    4.0136 H   0  0  0  0  0  0  0  0  0  0  0  0
    3.5548   -1.9716    1.9294 H   0  0  0  0  0  0  0  0  0  0  0  0
    3.3146   -0.3055    1.4417 H   0  0  0  0  0  0  0  0  0  0  0  0
    5.2853   -1.3024    3.4600 H   0  0  0  0  0  0  0  0  0  0  0  0
    5.3872    0.1331    2.4041 H   0  0  0  0  0  0  0  0  0  0  0  0
    2.6796    0.0172    6.0535 H   0  0  0  0  0  0  0  0  0  0  0  0
  1  2  2  0
  1 29  1  0
  1 30  1  0
  2  3  1  0
  2  4  1  0
  3 31  1  0
  3 32  1  0
  3 33  1  0
  4 11  1  0
  4  5  1  0
  4 34  1  1
  5 11  1  0
  5  6  1  0
  5 35  1  1
  6  7  1  0
  6 36  1  0
  6 37  1  0
  7 22  1  0
  7  8  1  0
  7 38  1  6
  9  8  1  1
  8 39  1  0
  8 40  1  0
  9 22  1  0
  9 28  1  0
  9 10  1  0
 10 11  1  0
 10 41  1  0
 10 42  1  0
 11 12  1  1
 12 13  2  0
 12 14  1  0
 13 43  1  0
 13 44  1  0
 14 15  1  0
 14 45  1  0
 14 46  1  0
 15 16  1  0
 15 47  1  0
 15 48  1  0
 16 18  1  0
 16 28  1  0
 16 17  1  6
 17 18  1  0
 18 19  1  0
 18 49  1  6
 19 20  1  0
 19 50  1  0
 19 51  1  0
 20 21  1  0
 20 52  1  0
 20 53  1  0
 21 22  1  0
 21 23  1  0
 21 54  1  6
 22 55  1  1
 23 27  1  0
 23 24  1  0
 23 28  1  0
 24 25  1  0
 25 26  1  0
 25 56  1  0
 25 57  1  0
 26 27  1  0
 26 58  1  0
 26 59  1  0
 28 60  1  1
M  END
>  <i_m_ct_stereo_status>  (273) 
1

>  <s_m_source_file>  (273) 
/var/tmp/pbs.5076255.sched01/tmpi2d1958y/88otlks1nw.sdf

>  <i_m_source_file_index>  (273) 
38

>  <i_lp_mmshare_version>  (273) 
48012

>  <i_f3d_flags>  (273) 
0

>  <s_epik_input>  (273) 
W0NAXTEyM1tDSF00W0NASF0oW0NIMl0xKVtDSDJdW0NAQEhdNVtDQF0oW0NIMl0yKShbQ0BASF01Qyg9W0NIMl0pW0NIM10pQyg9W0NIMl0pW0NIMl1bQ0gyXUM2N1tDQEBIXShPNilbQ0gyXVtDSDJdW0NAQEhdNEM4KFtDQEBIXTM3KU9bQ0gyXVtDSDJdTzg=

>  <s_epik_cmdline>  (273) 
J2VwaWtfcHl0aG9uJywgJy1waHQnLCAnMi4wJywgJy1waCcsICc3LjAnLCAnLXRuJywgJzgnLCAnLW1hJywgJzIwMCcsICctaW1hZScsICc8aW5maWxlLm1hZT4nLCAnLW9tYWUnLCAnPG91dGZpbGUubWFlPic=

>  <r_lp_tautomer_probability>  (273) 
1

>  <r_epik_Ionization_Penalty>  (273) 
1.44502e-11

>  <r_epik_Ionization_Penalty_Charging>  (273) 
0

>  <r_epik_Ionization_Penalty_Neutral>  (273) 
1.44502e-11

>  <r_epik_State_Penalty>  (273) 
-0

>  <r_epik_Charging_Adjusted_Penalty>  (273) 
0

>  <i_epik_Tot_Q>  (273) 
0

>  <i_epik_Tot_abs_Q>  (273) 
0

>  <s_lp_Force_Field>  (273) 
OPLS3e

>  <r_lp_Energy>  (273) 
134.645

>  <b_lp_Chiralities_Consistent>  (273) 
1

>  <s_lp_Variant>  (273) 
77:0-3

>  <s_i_glide_gridfile>  (273) 
pfpi4k_grid

>  <i_i_glide_lignum>  (273) 
38

>  <i_i_glide_rotatable_bonds>  (273) 
1

>  <r_i_docking_score>  (273) 
-2.01856

>  <r_i_glide_ligand_efficiency>  (273) 
-0.0720915

>  <r_i_glide_ligand_efficiency_sa>  (273) 
-0.218912

>  <r_i_glide_ligand_efficiency_ln>  (273) 
-0.465943

>  <r_i_glide_gscore>  (273) 
-2.01856

>  <r_i_glide_lipo>  (273) 
-0.102262

>  <r_i_glide_hbond>  (273) 
0

>  <r_i_glide_metal>  (273) 
-0

>  <r_i_glide_rewards>  (273) 
-0.814638

>  <r_i_glide_evdw>  (273) 
-22.1708

>  <r_i_glide_ecoul>  (273) 
-0.840321

>  <r_i_glide_erotb>  (273) 
0.133992

>  <r_i_glide_esite>  (273) 
-0.00106448

>  <r_i_glide_emodel>  (273) 
-24.0902

>  <r_i_glide_energy>  (273) 
-23.0111

>  <r_i_glide_einternal>  (273) 
0.744227

>  <r_i_glide_intrahb_reward>  (273) 
-0

>  <i_i_glide_confnum>  (273) 
1

>  <i_i_glide_posenum>  (273) 
9

>  <r_i_glide_eff_state_penalty>  (273) 
0

>  <ligand_id>  (273) 
77

>  <original_smiles>  (273) 
C=C(C)C1C2CC3CC45CC21C(=C)CCC12OC1CCC(C34)C1(OCCO1)C52

>  <smiles>  (273) 
[H]C([H])=C(C([H])([H])[H])C1([H])C2([H])C([H])([H])C3([H])C([H])([H])C45C([H])([H])C12C(=C([H])[H])C([H])([H])C([H])([H])C12OC1([H])C([H])([H])C([H])([H])C([H])(C1(OC([H])([H])C([H])([H])O1)C24[H])C35[H]

$$$$
77:2:2
     RDKit          3D

 60 67  0  0  1  0  0  0  0  0999 V2000
    6.5058   -0.4798    2.6214 C   0  0  0  0  0  0  0  0  0  0  0  0
    6.4705   -0.8573    1.3191 C   0  0  0  0  0  0  0  0  0  0  0  0
    7.6859   -1.4077    0.5992 C   0  0  0  0  0  0  0  0  0  0  0  0
    5.3224   -0.6180    0.4328 C   0  0  2  0  0  0  0  0  0  0  0  0
    3.9132   -0.3813    0.7375 C   0  0  2  0  0  0  0  0  0  0  0  0
    3.2759   -0.6186    2.1441 C   0  0  0  0  0  0  0  0  0  0  0  0
    3.2153   -2.0605    2.7730 C   0  0  1  0  0  0  0  0  0  0  0  0
    2.1858   -3.0099    2.1679 C   0  0  0  0  0  0  0  0  0  0  0  0
    3.2817   -3.3788    1.1237 C   0  0  1  0  0  0  0  0  0  0  0  0
    3.1588   -2.4545   -0.0361 C   0  0  0  0  0  0  0  0  0  0  0  0
    4.3247   -1.5476   -0.2858 C   0  0  2  0  0  0  0  0  0  0  0  0
    4.6848   -1.6291   -1.7207 C   0  0  0  0  0  0  0  0  0  0  0  0
    4.3678   -0.6417   -2.6308 C   0  0  0  0  0  0  0  0  0  0  0  0
    5.4338   -2.8896   -2.1704 C   0  0  0  0  0  0  0  0  0  0  0  0
    4.8877   -4.2692   -1.6601 C   0  0  0  0  0  0  0  0  0  0  0  0
    5.0474   -4.6485   -0.1642 C   0  0  2  0  0  0  0  0  0  0  0  0
    6.0784   -3.8068    0.3874 O   0  0  0  0  0  0  0  0  0  0  0  0
    6.4061   -5.1589    0.4494 C   0  0  1  0  0  0  0  0  0  0  0  0
    6.7913   -5.5140    1.8744 C   0  0  0  0  0  0  0  0  0  0  0  0
    5.9544   -4.8983    3.0421 C   0  0  0  0  0  0  0  0  0  0  0  0
    4.4581   -4.5644    2.9200 C   0  0  1  0  0  0  0  0  0  0  0  0
    4.2063   -3.1488    2.3155 C   0  0  2  0  0  0  0  0  0  0  0  0
    3.7634   -5.5611    1.9581 C   0  0  0  0  0  0  0  0  0  0  0  0
    4.4610   -6.7547    1.8283 O   0  0  0  0  0  0  0  0  0  0  0  0
    3.5568   -7.7881    2.0654 C   0  0  0  0  0  0  0  0  0  0  0  0
    2.5351   -7.1222    2.9678 C   0  0  0  0  0  0  0  0  0  0  0  0
    2.4680   -5.8483    2.3930 O   0  0  0  0  0  0  0  0  0  0  0  0
    3.6976   -4.7653    0.6373 C   0  0  1  0  0  0  0  0  0  0  0  0
    7.4305   -0.5783    3.1287 H   0  0  0  0  0  0  0  0  0  0  0  0
    5.6977   -0.0181    3.1702 H   0  0  0  0  0  0  0  0  0  0  0  0
    7.5116   -2.2318   -0.0659 H   0  0  0  0  0  0  0  0  0  0  0  0
    8.4912   -1.6165    1.2781 H   0  0  0  0  0  0  0  0  0  0  0  0
    8.1105   -0.6196    0.0305 H   0  0  0  0  0  0  0  0  0  0  0  0
    5.7243    0.0860   -0.2933 H   0  0  0  0  0  0  0  0  0  0  0  0
    3.4970    0.5186    0.3112 H   0  0  0  0  0  0  0  0  0  0  0  0
    3.7195    0.0802    2.8456 H   0  0  0  0  0  0  0  0  0  0  0  0
    2.2569   -0.2338    2.0764 H   0  0  0  0  0  0  0  0  0  0  0  0
    3.0999   -2.0158    3.8659 H   0  0  0  0  0  0  0  0  0  0  0  0
    1.8660   -3.7435    2.9019 H   0  0  0  0  0  0  0  0  0  0  0  0
    1.3271   -2.4626    1.7820 H   0  0  0  0  0  0  0  0  0  0  0  0
    2.8508   -2.9649   -0.9392 H   0  0  0  0  0  0  0  0  0  0  0  0
    2.2744   -1.8502    0.0731 H   0  0  0  0  0  0  0  0  0  0  0  0
    3.8360    0.2443   -2.3320 H   0  0  0  0  0  0  0  0  0  0  0  0
    4.6178   -0.7434   -3.6693 H   0  0  0  0  0  0  0  0  0  0  0  0
    5.3667   -2.9084   -3.2533 H   0  0  0  0  0  0  0  0  0  0  0  0
    6.4945   -2.7626   -1.9607 H   0  0  0  0  0  0  0  0  0  0  0  0
    3.8371   -4.3055   -1.9467 H   0  0  0  0  0  0  0  0  0  0  0  0
    5.3307   -5.0598   -2.2503 H   0  0  0  0  0  0  0  0  0  0  0  0
    7.1599   -5.4306   -0.2783 H   0  0  0  0  0  0  0  0  0  0  0  0
    6.8534   -6.6049    1.9451 H   0  0  0  0  0  0  0  0  0  0  0  0
    7.8228   -5.1934    1.9910 H   0  0  0  0  0  0  0  0  0  0  0  0
    6.1349   -5.4988    3.9382 H   0  0  0  0  0  0  0  0  0  0  0  0
    6.2757   -3.8913    3.2075 H   0  0  0  0  0  0  0  0  0  0  0  0
    4.0163   -4.6150    3.9075 H   0  0  0  0  0  0  0  0  0  0  0  0
    5.1246   -2.6543    2.0909 H   0  0  0  0  0  0  0  0  0  0  0  0
    3.1221   -8.0643    1.1067 H   0  0  0  0  0  0  0  0  0  0  0  0
    4.0399   -8.6538    2.5165 H   0  0  0  0  0  0  0  0  0  0  0  0
    1.5620   -7.5955    2.9335 H   0  0  0  0  0  0  0  0  0  0  0  0
    2.8760   -7.0648    4.0040 H   0  0  0  0  0  0  0  0  0  0  0  0
    2.9338   -5.2307    0.0051 H   0  0  0  0  0  0  0  0  0  0  0  0
  1  2  2  0
  1 29  1  0
  1 30  1  0
  2  3  1  0
  2  4  1  0
  3 31  1  0
  3 32  1  0
  3 33  1  0
  4 11  1  0
  4  5  1  0
  4 34  1  6
  5 11  1  0
  5  6  1  0
  5 35  1  6
  6  7  1  0
  6 36  1  0
  6 37  1  0
  7 22  1  0
  7  8  1  0
  7 38  1  1
  9  8  1  1
  8 39  1  0
  8 40  1  0
  9 22  1  0
  9 28  1  0
  9 10  1  0
 10 11  1  0
 10 41  1  0
 10 42  1  0
 11 12  1  6
 12 13  2  0
 12 14  1  0
 13 43  1  0
 13 44  1  0
 14 15  1  0
 14 45  1  0
 14 46  1  0
 15 16  1  0
 15 47  1  0
 15 48  1  0
 16 18  1  0
 16 28  1  0
 16 17  1  1
 17 18  1  0
 18 19  1  0
 18 49  1  6
 19 20  1  0
 19 50  1  0
 19 51  1  0
 20 21  1  0
 20 52  1  0
 20 53  1  0
 21 22  1  0
 21 23  1  0
 21 54  1  1
 22 55  1  6
 23 27  1  0
 23 24  1  0
 23 28  1  0
 24 25  1  0
 25 26  1  0
 25 56  1  0
 25 57  1  0
 26 27  1  0
 26 58  1  0
 26 59  1  0
 28 60  1  6
M  END
>  <i_m_ct_stereo_status>  (274) 
1

>  <s_m_source_file>  (274) 
/var/tmp/pbs.5076255.sched01/tmpi2d1958y/88otlks1nw.sdf

>  <i_m_source_file_index>  (274) 
38

>  <i_lp_mmshare_version>  (274) 
48012

>  <i_f3d_flags>  (274) 
0

>  <s_epik_input>  (274) 
W0NAXTEyM1tDSF00W0NASF0oW0NIMl0xKVtDSDJdW0NAQEhdNVtDQF0oW0NIMl0yKShbQ0BASF01Qyg9W0NIMl0pW0NIM10pQyg9W0NIMl0pW0NIMl1bQ0gyXUM2N1tDQEBIXShPNilbQ0gyXVtDSDJdW0NAQEhdNEM4KFtDQEBIXTM3KU9bQ0gyXVtDSDJdTzg=

>  <s_epik_cmdline>  (274) 
J2VwaWtfcHl0aG9uJywgJy1waHQnLCAnMi4wJywgJy1waCcsICc3LjAnLCAnLXRuJywgJzgnLCAnLW1hJywgJzIwMCcsICctaW1hZScsICc8aW5maWxlLm1hZT4nLCAnLW9tYWUnLCAnPG91dGZpbGUubWFlPic=

>  <r_lp_tautomer_probability>  (274) 
1

>  <r_epik_Ionization_Penalty>  (274) 
1.44502e-11

>  <r_epik_Ionization_Penalty_Charging>  (274) 
0

>  <r_epik_Ionization_Penalty_Neutral>  (274) 
1.44502e-11

>  <r_epik_State_Penalty>  (274) 
-0

>  <r_epik_Charging_Adjusted_Penalty>  (274) 
0

>  <i_epik_Tot_Q>  (274) 
0

>  <i_epik_Tot_abs_Q>  (274) 
0

>  <s_lp_Force_Field>  (274) 
OPLS3e

>  <r_lp_Energy>  (274) 
134.645

>  <b_lp_Chiralities_Consistent>  (274) 
1

>  <s_lp_Variant>  (274) 
77:0-3

>  <s_i_glide_gridfile>  (274) 
pfpi4k_grid

>  <i_i_glide_lignum>  (274) 
38

>  <i_i_glide_rotatable_bonds>  (274) 
1

>  <r_i_docking_score>  (274) 
-1.48345

>  <r_i_glide_ligand_efficiency>  (274) 
-0.0529802

>  <r_i_glide_ligand_efficiency_sa>  (274) 
-0.160879

>  <r_i_glide_ligand_efficiency_ln>  (274) 
-0.342423

>  <r_i_glide_gscore>  (274) 
-1.48345

>  <r_i_glide_lipo>  (274) 
-0.671804

>  <r_i_glide_hbond>  (274) 
0

>  <r_i_glide_metal>  (274) 
-0

>  <r_i_glide_rewards>  (274) 
-0.829911

>  <r_i_glide_evdw>  (274) 
-0.269415

>  <r_i_glide_ecoul>  (274) 
-0.68168

>  <r_i_glide_erotb>  (274) 
0.133992

>  <r_i_glide_esite>  (274) 
0

>  <r_i_glide_emodel>  (274) 
-1.49497

>  <r_i_glide_energy>  (274) 
-0.951096

>  <r_i_glide_einternal>  (274) 
0.35647

>  <r_i_glide_intrahb_reward>  (274) 
-0

>  <i_i_glide_confnum>  (274) 
6

>  <i_i_glide_posenum>  (274) 
31

>  <r_i_glide_eff_state_penalty>  (274) 
0

>  <ligand_id>  (274) 
77

>  <original_smiles>  (274) 
C=C(C)C1C2CC3CC45CC21C(=C)CCC12OC1CCC(C34)C1(OCCO1)C52

>  <smiles>  (274) 
[H]C([H])=C(C([H])([H])[H])C1([H])C2([H])C([H])([H])C3([H])C([H])([H])C45C([H])([H])C12C(=C([H])[H])C([H])([H])C([H])([H])C12OC1([H])C([H])([H])C([H])([H])C([H])(C1(OC([H])([H])C([H])([H])O1)C24[H])C35[H]

$$$$
77:3:0
     RDKit          3D

 60 67  0  0  1  0  0  0  0  0999 V2000
    5.4770   -3.6349    5.3712 C   0  0  0  0  0  0  0  0  0  0  0  0
    4.9001   -4.8380    5.2218 C   0  0  0  0  0  0  0  0  0  0  0  0
    5.7866   -6.0763    5.2394 C   0  0  0  0  0  0  0  0  0  0  0  0
    3.4076   -5.0298    5.1484 C   0  0  2  0  0  0  0  0  0  0  0  0
    2.6008   -5.8691    4.2770 C   0  0  2  0  0  0  0  0  0  0  0  0
    3.2683   -6.6807    3.1349 C   0  0  0  0  0  0  0  0  0  0  0  0
    3.8430   -5.9404    1.8827 C   0  0  1  0  0  0  0  0  0  0  0  0
    2.7821   -5.4483    0.9100 C   0  0  0  0  0  0  0  0  0  0  0  0
    2.8662   -4.0748    1.6873 C   0  0  1  0  0  0  0  0  0  0  0  0
    1.8358   -4.1666    2.7885 C   0  0  0  0  0  0  0  0  0  0  0  0
    2.3449   -4.3165    4.2144 C   0  0  2  0  0  0  0  0  0  0  0  0
    1.6805   -3.2487    5.0106 C   0  0  0  0  0  0  0  0  0  0  0  0
    0.9389   -3.4519    6.1121 C   0  0  0  0  0  0  0  0  0  0  0  0
    1.9032   -1.8430    4.4043 C   0  0  0  0  0  0  0  0  0  0  0  0
    3.2487   -1.7439    3.6013 C   0  0  0  0  0  0  0  0  0  0  0  0
    3.3306   -1.4888    2.0787 C   0  0  1  0  0  0  0  0  0  0  0  0
    3.3824   -0.0607    1.9696 O   0  0  0  0  0  0  0  0  0  0  0  0
    4.5635   -0.7267    1.5242 C   0  0  1  0  0  0  0  0  0  0  0  0
    5.7944   -1.3689    2.1459 C   0  0  0  0  0  0  0  0  0  0  0  0
    6.2115   -2.6693    1.3542 C   0  0  0  0  0  0  0  0  0  0  0  0
    5.1465   -3.7037    0.8022 C   0  0  1  0  0  0  0  0  0  0  0  0
    4.3306   -4.4575    1.9006 C   0  0  2  0  0  0  0  0  0  0  0  0
    4.0739   -2.9536   -0.0644 C   0  0  0  0  0  0  0  0  0  0  0  0
    3.5852   -3.7842   -1.0548 O   0  0  0  0  0  0  0  0  0  0  0  0
    2.9627   -2.9685   -1.9934 C   0  0  0  0  0  0  0  0  0  0  0  0
    3.9324   -1.8003   -2.0266 C   0  0  0  0  0  0  0  0  0  0  0  0
    4.6102   -1.8933   -0.7953 O   0  0  0  0  0  0  0  0  0  0  0  0
    2.9530   -2.6360    1.0283 C   0  0  1  0  0  0  0  0  0  0  0  0
    6.5557   -3.5452    5.3773 H   0  0  0  0  0  0  0  0  0  0  0  0
    4.8973   -2.7289    5.4935 H   0  0  0  0  0  0  0  0  0  0  0  0
    5.4072   -6.8115    5.9501 H   0  0  0  0  0  0  0  0  0  0  0  0
    6.7842   -5.7998    5.5833 H   0  0  0  0  0  0  0  0  0  0  0  0
    5.9012   -6.5315    4.2618 H   0  0  0  0  0  0  0  0  0  0  0  0
    3.0958   -5.1758    6.1801 H   0  0  0  0  0  0  0  0  0  0  0  0
    1.7902   -6.4332    4.7439 H   0  0  0  0  0  0  0  0  0  0  0  0
    4.0228   -7.3272    3.5744 H   0  0  0  0  0  0  0  0  0  0  0  0
    2.5206   -7.3946    2.7801 H   0  0  0  0  0  0  0  0  0  0  0  0
    4.5695   -6.5665    1.3527 H   0  0  0  0  0  0  0  0  0  0  0  0
    3.1757   -5.6315   -0.0832 H   0  0  0  0  0  0  0  0  0  0  0  0
    1.8410   -5.9973    0.9907 H   0  0  0  0  0  0  0  0  0  0  0  0
    1.1269   -3.3492    2.6759 H   0  0  0  0  0  0  0  0  0  0  0  0
    1.1244   -4.9774    2.6307 H   0  0  0  0  0  0  0  0  0  0  0  0
    0.7688   -4.4462    6.5040 H   0  0  0  0  0  0  0  0  0  0  0  0
    0.4914   -2.6201    6.6382 H   0  0  0  0  0  0  0  0  0  0  0  0
    1.0573   -1.5265    3.7928 H   0  0  0  0  0  0  0  0  0  0  0  0
    1.9295   -1.1378    5.2369 H   0  0  0  0  0  0  0  0  0  0  0  0
    3.7905   -0.9220    4.0898 H   0  0  0  0  0  0  0  0  0  0  0  0
    3.8824   -2.5803    3.7797 H   0  0  0  0  0  0  0  0  0  0  0  0
    4.7450   -0.2264    0.5886 H   0  0  0  0  0  0  0  0  0  0  0  0
    6.6124   -0.6567    2.0813 H   0  0  0  0  0  0  0  0  0  0  0  0
    5.6996   -1.5598    3.2119 H   0  0  0  0  0  0  0  0  0  0  0  0
    6.8009   -2.3402    0.4991 H   0  0  0  0  0  0  0  0  0  0  0  0
    6.9206   -3.2265    1.9732 H   0  0  0  0  0  0  0  0  0  0  0  0
    5.6674   -4.4158    0.1592 H   0  0  0  0  0  0  0  0  0  0  0  0
    4.7223   -4.2343    2.8760 H   0  0  0  0  0  0  0  0  0  0  0  0
    2.8344   -3.4719   -2.9494 H   0  0  0  0  0  0  0  0  0  0  0  0
    1.9771   -2.6686   -1.6366 H   0  0  0  0  0  0  0  0  0  0  0  0
    4.6617   -1.9366   -2.8214 H   0  0  0  0  0  0  0  0  0  0  0  0
    3.4380   -0.8367   -2.1411 H   0  0  0  0  0  0  0  0  0  0  0  0
    2.0158   -2.3546    0.5581 H   0  0  0  0  0  0  0  0  0  0  0  0
  1  2  2  0
  1 29  1  0
  1 30  1  0
  2  3  1  0
  2  4  1  0
  3 31  1  0
  3 32  1  0
  3 33  1  0
  4 11  1  0
  4  5  1  0
  4 34  1  1
  5 11  1  0
  5  6  1  0
  5 35  1  1
  6  7  1  0
  6 36  1  0
  6 37  1  0
  7 22  1  0
  7  8  1  0
  7 38  1  6
  9  8  1  6
  8 39  1  0
  8 40  1  0
  9 22  1  0
  9 28  1  0
  9 10  1  0
 10 11  1  0
 10 41  1  0
 10 42  1  0
 11 12  1  1
 12 13  2  0
 12 14  1  0
 13 43  1  0
 13 44  1  0
 14 15  1  0
 14 45  1  0
 14 46  1  0
 15 16  1  0
 15 47  1  0
 15 48  1  0
 16 18  1  0
 16 28  1  0
 16 17  1  1
 17 18  1  0
 18 19  1  0
 18 49  1  6
 19 20  1  0
 19 50  1  0
 19 51  1  0
 20 21  1  0
 20 52  1  0
 20 53  1  0
 21 22  1  0
 21 23  1  0
 21 54  1  6
 22 55  1  1
 23 27  1  0
 23 24  1  0
 23 28  1  0
 24 25  1  0
 25 26  1  0
 25 56  1  0
 25 57  1  0
 26 27  1  0
 26 58  1  0
 26 59  1  0
 28 60  1  6
M  END
>  <i_m_ct_stereo_status>  (275) 
1

>  <s_m_source_file>  (275) 
/var/tmp/pbs.5076255.sched01/tmpi2d1958y/88otlks1nw.sdf

>  <i_m_source_file_index>  (275) 
39

>  <i_lp_mmshare_version>  (275) 
48012

>  <i_f3d_flags>  (275) 
0

>  <s_epik_input>  (275) 
W0NAXTEyM1tDSF00W0NASF0oW0NIMl0xKVtDSDJdW0NAQEhdNVtDQF0oW0NIMl0yKShbQ0BASF01Qyg9W0NIMl0pW0NIM10pQyg9W0NIMl0pW0NIMl1bQ0gyXUM2N1tDQEBIXShPNilbQ0gyXVtDSDJdW0NAQEhdNEM4KFtDQEBIXTM3KU9bQ0gyXVtDSDJdTzg=

>  <s_epik_cmdline>  (275) 
J2VwaWtfcHl0aG9uJywgJy1waHQnLCAnMi4wJywgJy1waCcsICc3LjAnLCAnLXRuJywgJzgnLCAnLW1hJywgJzIwMCcsICctaW1hZScsICc8aW5maWxlLm1hZT4nLCAnLW9tYWUnLCAnPG91dGZpbGUubWFlPic=

>  <r_lp_tautomer_probability>  (275) 
1

>  <r_epik_Ionization_Penalty>  (275) 
1.44502e-11

>  <r_epik_Ionization_Penalty_Charging>  (275) 
0

>  <r_epik_Ionization_Penalty_Neutral>  (275) 
1.44502e-11

>  <r_epik_State_Penalty>  (275) 
-0

>  <r_epik_Charging_Adjusted_Penalty>  (275) 
0

>  <i_epik_Tot_Q>  (275) 
0

>  <i_epik_Tot_abs_Q>  (275) 
0

>  <s_lp_Force_Field>  (275) 
OPLS3e

>  <r_lp_Energy>  (275) 
181.188

>  <b_lp_Chiralities_Consistent>  (275) 
1

>  <s_lp_Variant>  (275) 
77:0-4

>  <s_i_glide_gridfile>  (275) 
pfpi4k_grid

>  <i_i_glide_lignum>  (275) 
39

>  <i_i_glide_rotatable_bonds>  (275) 
1

>  <r_i_docking_score>  (275) 
-2.18303

>  <r_i_glide_ligand_efficiency>  (275) 
-0.0779655

>  <r_i_glide_ligand_efficiency_sa>  (275) 
-0.236749

>  <r_i_glide_ligand_efficiency_ln>  (275) 
-0.503908

>  <r_i_glide_gscore>  (275) 
-2.18303

>  <r_i_glide_lipo>  (275) 
-0.432528

>  <r_i_glide_hbond>  (275) 
0

>  <r_i_glide_metal>  (275) 
-0

>  <r_i_glide_rewards>  (275) 
-0.814638

>  <r_i_glide_evdw>  (275) 
-22.0348

>  <r_i_glide_ecoul>  (275) 
0.217215

>  <r_i_glide_erotb>  (275) 
0.133992

>  <r_i_glide_esite>  (275) 
-0.000703558

>  <r_i_glide_emodel>  (275) 
-23.2733

>  <r_i_glide_energy>  (275) 
-21.8176

>  <r_i_glide_einternal>  (275) 
1.15337

>  <r_i_glide_intrahb_reward>  (275) 
-0

>  <i_i_glide_confnum>  (275) 
3

>  <i_i_glide_posenum>  (275) 
3

>  <r_i_glide_eff_state_penalty>  (275) 
0

>  <ligand_id>  (275) 
77

>  <original_smiles>  (275) 
C=C(C)C1C2CC3CC45CC21C(=C)CCC12OC1CCC(C34)C1(OCCO1)C52

>  <smiles>  (275) 
[H]C([H])=C(C([H])([H])[H])C1([H])C2([H])C([H])([H])C3([H])C([H])([H])C45C([H])([H])C12C(=C([H])[H])C([H])([H])C([H])([H])C12OC1([H])C([H])([H])C([H])([H])C([H])(C1(OC([H])([H])C([H])([H])O1)C24[H])C35[H]

$$$$
77:3:1
     RDKit          3D

 60 67  0  0  1  0  0  0  0  0999 V2000
    6.6631   -0.9666    1.7248 C   0  0  0  0  0  0  0  0  0  0  0  0
    5.5154   -0.3922    2.0599 C   0  0  0  0  0  0  0  0  0  0  0  0
    5.3159    0.1353    3.4665 C   0  0  0  0  0  0  0  0  0  0  0  0
    4.4724   -0.2203    1.0219 C   0  0  2  0  0  0  0  0  0  0  0  0
    3.0342   -0.2976    1.0968 C   0  0  2  0  0  0  0  0  0  0  0  0
    2.3952   -0.6183    2.4715 C   0  0  0  0  0  0  0  0  0  0  0  0
    2.5725   -2.0494    3.0777 C   0  0  1  0  0  0  0  0  0  0  0  0
    1.6807   -3.0301    2.4348 C   0  0  0  0  0  0  0  0  0  0  0  0
    2.8827   -3.4156    1.4572 C   0  0  1  0  0  0  0  0  0  0  0  0
    2.8284   -2.5397    0.2534 C   0  0  0  0  0  0  0  0  0  0  0  0
    3.7752   -1.3389    0.1633 C   0  0  2  0  0  0  0  0  0  0  0  0
    4.4326   -1.4081   -1.1931 C   0  0  0  0  0  0  0  0  0  0  0  0
    4.5302   -0.4626   -2.1403 C   0  0  0  0  0  0  0  0  0  0  0  0
    5.0336   -2.7958   -1.4521 C   0  0  0  0  0  0  0  0  0  0  0  0
    5.4920   -3.5242   -0.1511 C   0  0  0  0  0  0  0  0  0  0  0  0
    4.8204   -4.8198    0.3959 C   0  0  1  0  0  0  0  0  0  0  0  0
    5.5103   -5.8467   -0.2579 O   0  0  0  0  0  0  0  0  0  0  0  0
    5.6982   -5.8390    1.1541 C   0  0  1  0  0  0  0  0  0  0  0  0
    6.4356   -5.0276    2.2118 C   0  0  0  0  0  0  0  0  0  0  0  0
    5.5098   -4.7754    3.4694 C   0  0  0  0  0  0  0  0  0  0  0  0
    3.9692   -4.4412    3.3545 C   0  0  1  0  0  0  0  0  0  0  0  0
    3.6849   -3.0698    2.6922 C   0  0  2  0  0  0  0  0  0  0  0  0
    3.2550   -5.5218    2.4610 C   0  0  0  0  0  0  0  0  0  0  0  0
    1.9071   -5.6710    2.7681 O   0  0  0  0  0  0  0  0  0  0  0  0
    1.7251   -6.8127    3.5499 C   0  0  0  0  0  0  0  0  0  0  0  0
    2.7553   -7.6870    2.8743 C   0  0  0  0  0  0  0  0  0  0  0  0
    3.8053   -6.7821    2.6492 O   0  0  0  0  0  0  0  0  0  0  0  0
    3.3567   -4.8492    1.0388 C   0  0  1  0  0  0  0  0  0  0  0  0
    7.3815   -1.0147    2.5158 H   0  0  0  0  0  0  0  0  0  0  0  0
    6.9552   -1.3401    0.7819 H   0  0  0  0  0  0  0  0  0  0  0  0
    4.8809    1.1330    3.4503 H   0  0  0  0  0  0  0  0  0  0  0  0
    6.2644    0.2450    3.9933 H   0  0  0  0  0  0  0  0  0  0  0  0
    4.6610   -0.4784    4.0710 H   0  0  0  0  0  0  0  0  0  0  0  0
    4.7812    0.6695    0.4837 H   0  0  0  0  0  0  0  0  0  0  0  0
    2.4768    0.4683    0.5721 H   0  0  0  0  0  0  0  0  0  0  0  0
    2.7176    0.1073    3.2098 H   0  0  0  0  0  0  0  0  0  0  0  0
    1.3268   -0.3907    2.3569 H   0  0  0  0  0  0  0  0  0  0  0  0
    2.3154   -2.0873    4.1266 H   0  0  0  0  0  0  0  0  0  0  0  0
    1.1387   -3.6905    3.0997 H   0  0  0  0  0  0  0  0  0  0  0  0
    0.8941   -2.3939    2.0605 H   0  0  0  0  0  0  0  0  0  0  0  0
    2.7333   -3.0852   -0.6939 H   0  0  0  0  0  0  0  0  0  0  0  0
    1.8254   -2.1813    0.2781 H   0  0  0  0  0  0  0  0  0  0  0  0
    4.2291    0.5531   -2.0106 H   0  0  0  0  0  0  0  0  0  0  0  0
    4.9756   -0.6055   -3.0990 H   0  0  0  0  0  0  0  0  0  0  0  0
    4.3457   -3.4138   -2.0233 H   0  0  0  0  0  0  0  0  0  0  0  0
    5.8928   -2.6374   -2.1049 H   0  0  0  0  0  0  0  0  0  0  0  0
    6.5402   -3.7614   -0.3449 H   0  0  0  0  0  0  0  0  0  0  0  0
    5.5604   -2.8573    0.6749 H   0  0  0  0  0  0  0  0  0  0  0  0
    5.5644   -6.8831    1.4014 H   0  0  0  0  0  0  0  0  0  0  0  0
    7.3105   -5.5982    2.5309 H   0  0  0  0  0  0  0  0  0  0  0  0
    6.8579   -4.1013    1.8358 H   0  0  0  0  0  0  0  0  0  0  0  0
    5.5834   -5.6639    4.0898 H   0  0  0  0  0  0  0  0  0  0  0  0
    5.9600   -3.9873    4.0665 H   0  0  0  0  0  0  0  0  0  0  0  0
    3.5226   -4.4673    4.3468 H   0  0  0  0  0  0  0  0  0  0  0  0
    4.5774   -2.5502    2.4532 H   0  0  0  0  0  0  0  0  0  0  0  0
    1.9457   -6.6129    4.6031 H   0  0  0  0  0  0  0  0  0  0  0  0
    0.6986   -7.1651    3.4362 H   0  0  0  0  0  0  0  0  0  0  0  0
    3.0599   -8.5323    3.4895 H   0  0  0  0  0  0  0  0  0  0  0  0
    2.3892   -8.0237    1.9041 H   0  0  0  0  0  0  0  0  0  0  0  0
    2.6762   -5.3515    0.3464 H   0  0  0  0  0  0  0  0  0  0  0  0
  1  2  2  0
  1 29  1  0
  1 30  1  0
  2  3  1  0
  2  4  1  0
  3 31  1  0
  3 32  1  0
  3 33  1  0
  4 11  1  0
  4  5  1  0
  4 34  1  6
  5 11  1  0
  5  6  1  0
  5 35  1  6
  6  7  1  0
  6 36  1  0
  6 37  1  0
  7 22  1  0
  7  8  1  0
  7 38  1  1
  9  8  1  1
  8 39  1  0
  8 40  1  0
  9 22  1  0
  9 28  1  0
  9 10  1  0
 10 11  1  0
 10 41  1  0
 10 42  1  0
 11 12  1  6
 12 13  2  0
 12 14  1  0
 13 43  1  0
 13 44  1  0
 14 15  1  0
 14 45  1  0
 14 46  1  0
 15 16  1  0
 15 47  1  0
 15 48  1  0
 16 18  1  0
 16 28  1  0
 16 17  1  6
 17 18  1  0
 18 19  1  0
 18 49  1  1
 19 20  1  0
 19 50  1  0
 19 51  1  0
 20 21  1  0
 20 52  1  0
 20 53  1  0
 21 22  1  0
 21 23  1  0
 21 54  1  1
 22 55  1  6
 23 27  1  0
 23 24  1  0
 23 28  1  0
 24 25  1  0
 25 26  1  0
 25 56  1  0
 25 57  1  0
 26 27  1  0
 26 58  1  0
 26 59  1  0
 28 60  1  6
M  END
>  <i_m_ct_stereo_status>  (276) 
1

>  <s_m_source_file>  (276) 
/var/tmp/pbs.5076255.sched01/tmpi2d1958y/88otlks1nw.sdf

>  <i_m_source_file_index>  (276) 
39

>  <i_lp_mmshare_version>  (276) 
48012

>  <i_f3d_flags>  (276) 
0

>  <s_epik_input>  (276) 
W0NAXTEyM1tDSF00W0NASF0oW0NIMl0xKVtDSDJdW0NAQEhdNVtDQF0oW0NIMl0yKShbQ0BASF01Qyg9W0NIMl0pW0NIM10pQyg9W0NIMl0pW0NIMl1bQ0gyXUM2N1tDQEBIXShPNilbQ0gyXVtDSDJdW0NAQEhdNEM4KFtDQEBIXTM3KU9bQ0gyXVtDSDJdTzg=

>  <s_epik_cmdline>  (276) 
J2VwaWtfcHl0aG9uJywgJy1waHQnLCAnMi4wJywgJy1waCcsICc3LjAnLCAnLXRuJywgJzgnLCAnLW1hJywgJzIwMCcsICctaW1hZScsICc8aW5maWxlLm1hZT4nLCAnLW9tYWUnLCAnPG91dGZpbGUubWFlPic=

>  <r_lp_tautomer_probability>  (276) 
1

>  <r_epik_Ionization_Penalty>  (276) 
1.44502e-11

>  <r_epik_Ionization_Penalty_Charging>  (276) 
0

>  <r_epik_Ionization_Penalty_Neutral>  (276) 
1.44502e-11

>  <r_epik_State_Penalty>  (276) 
-0

>  <r_epik_Charging_Adjusted_Penalty>  (276) 
0

>  <i_epik_Tot_Q>  (276) 
0

>  <i_epik_Tot_abs_Q>  (276) 
0

>  <s_lp_Force_Field>  (276) 
OPLS3e

>  <r_lp_Energy>  (276) 
181.188

>  <b_lp_Chiralities_Consistent>  (276) 
1

>  <s_lp_Variant>  (276) 
77:0-4

>  <s_i_glide_gridfile>  (276) 
pfpi4k_grid

>  <i_i_glide_lignum>  (276) 
39

>  <i_i_glide_rotatable_bonds>  (276) 
1

>  <r_i_docking_score>  (276) 
-1.55355

>  <r_i_glide_ligand_efficiency>  (276) 
-0.0554838

>  <r_i_glide_ligand_efficiency_sa>  (276) 
-0.168482

>  <r_i_glide_ligand_efficiency_ln>  (276) 
-0.358604

>  <r_i_glide_gscore>  (276) 
-1.55355

>  <r_i_glide_lipo>  (276) 
-0.567325

>  <r_i_glide_hbond>  (276) 
0

>  <r_i_glide_metal>  (276) 
-0

>  <r_i_glide_rewards>  (276) 
-0.814638

>  <r_i_glide_evdw>  (276) 
-5.05168

>  <r_i_glide_ecoul>  (276) 
-0.353278

>  <r_i_glide_erotb>  (276) 
0.133992

>  <r_i_glide_esite>  (276) 
0

>  <r_i_glide_emodel>  (276) 
-3.67742

>  <r_i_glide_energy>  (276) 
-5.40496

>  <r_i_glide_einternal>  (276) 
2.15159

>  <r_i_glide_intrahb_reward>  (276) 
-0

>  <i_i_glide_confnum>  (276) 
4

>  <i_i_glide_posenum>  (276) 
17

>  <r_i_glide_eff_state_penalty>  (276) 
0

>  <ligand_id>  (276) 
77

>  <original_smiles>  (276) 
C=C(C)C1C2CC3CC45CC21C(=C)CCC12OC1CCC(C34)C1(OCCO1)C52

>  <smiles>  (276) 
[H]C([H])=C(C([H])([H])[H])C1([H])C2([H])C([H])([H])C3([H])C([H])([H])C45C([H])([H])C12C(=C([H])[H])C([H])([H])C([H])([H])C12OC1([H])C([H])([H])C([H])([H])C([H])(C1(OC([H])([H])C([H])([H])O1)C24[H])C35[H]

$$$$
78:0:0
     RDKit          3D

 42 46  0  0  1  0  0  0  0  0999 V2000
    5.6363  -11.4339    4.3826 O   0  0  0  0  0  0  0  0  0  0  0  0
    5.0174  -10.5915    3.7332 C   0  0  0  0  0  0  0  0  0  0  0  0
    5.6292   -9.4860    3.2791 N   0  0  0  0  0  0  0  0  0  0  0  0
    4.9898   -8.5136    2.5933 C   0  0  0  0  0  0  0  0  0  0  0  0
    5.8494   -7.2176    1.8304 S   0  0  0  0  0  0  0  0  0  0  0  0
    4.3473   -6.5053    1.2431 C   0  0  0  0  0  0  0  0  0  0  0  0
    4.0913   -5.3494    0.4722 C   0  0  0  0  0  0  0  0  0  0  0  0
    5.0864   -4.4627    0.0071 N   0  0  0  0  0  0  0  0  0  0  0  0
    4.8252   -3.4404   -0.9944 C   0  0  0  0  0  0  0  0  0  0  0  0
    6.2064   -2.9005   -1.3810 C   0  0  0  0  0  0  0  0  0  0  0  0
    7.0648   -3.1627   -0.1409 C   0  0  0  0  0  0  0  0  0  0  0  0
    6.4630   -4.4330    0.4641 C   0  0  0  0  0  0  0  0  0  0  0  0
    2.8106   -5.0579    0.1506 N   0  0  0  0  0  0  0  0  0  0  0  0
    1.8129   -5.8548    0.5420 N   0  0  0  0  0  0  0  0  0  0  0  0
    1.9871   -6.9515    1.2871 N   0  0  0  0  0  0  0  0  0  0  0  0
    3.2294   -7.3003    1.6440 C   0  0  0  0  0  0  0  0  0  0  0  0
    3.6303   -8.4483    2.4318 C   0  0  0  0  0  0  0  0  0  0  0  0
    2.7347   -9.5014    3.0215 C   0  0  2  0  0  0  0  0  0  0  0  0
    1.9339   -8.9679    4.2290 C   0  0  0  0  0  0  0  0  0  0  0  0
    0.8829   -9.9851    4.7250 C   0  0  0  0  0  0  0  0  0  0  0  0
    1.2786  -11.4503    4.4651 C   0  0  0  0  0  0  0  0  0  0  0  0
    2.8033  -11.6390    4.4832 C   0  0  0  0  0  0  0  0  0  0  0  0
    3.5203  -10.8096    3.3868 C   0  0  2  0  0  0  0  0  0  0  0  0
    6.6185   -9.3756    3.4447 H   0  0  0  0  0  0  0  0  0  0  0  0
    4.3017   -3.8478   -1.8603 H   0  0  0  0  0  0  0  0  0  0  0  0
    4.2074   -2.6515   -0.5632 H   0  0  0  0  0  0  0  0  0  0  0  0
    6.6007   -3.4654   -2.2271 H   0  0  0  0  0  0  0  0  0  0  0  0
    6.1821   -1.8491   -1.6675 H   0  0  0  0  0  0  0  0  0  0  0  0
    8.1255   -3.2730   -0.3715 H   0  0  0  0  0  0  0  0  0  0  0  0
    6.9572   -2.3384    0.5651 H   0  0  0  0  0  0  0  0  0  0  0  0
    6.5296   -4.4258    1.5525 H   0  0  0  0  0  0  0  0  0  0  0  0
    6.9787   -5.3141    0.0827 H   0  0  0  0  0  0  0  0  0  0  0  0
    2.0041   -9.7742    2.2565 H   0  0  0  0  0  0  0  0  0  0  0  0
    2.6241   -8.7231    5.0395 H   0  0  0  0  0  0  0  0  0  0  0  0
    1.4267   -8.0365    3.9726 H   0  0  0  0  0  0  0  0  0  0  0  0
    0.7214   -9.8325    5.7926 H   0  0  0  0  0  0  0  0  0  0  0  0
   -0.0801   -9.7982    4.2474 H   0  0  0  0  0  0  0  0  0  0  0  0
    0.8104  -12.0907    5.2118 H   0  0  0  0  0  0  0  0  0  0  0  0
    0.8850  -11.7766    3.5010 H   0  0  0  0  0  0  0  0  0  0  0  0
    3.1719  -11.3888    5.4795 H   0  0  0  0  0  0  0  0  0  0  0  0
    3.0350  -12.6923    4.3421 H   0  0  0  0  0  0  0  0  0  0  0  0
    3.5437  -11.4142    2.4817 H   0  0  0  0  0  0  0  0  0  0  0  0
  1  2  2  0
  2 23  1  0
  2  3  1  0
  3  4  1  0
  3 24  1  0
  4 17  2  0
  4  5  1  0
  5  6  1  0
  6 16  2  0
  6  7  1  0
  7  8  1  0
  7 13  2  0
  8 12  1  0
  8  9  1  0
  9 10  1  0
  9 25  1  0
  9 26  1  0
 10 11  1  0
 10 27  1  0
 10 28  1  0
 11 12  1  0
 11 29  1  0
 11 30  1  0
 12 31  1  0
 12 32  1  0
 13 14  1  0
 14 15  2  0
 15 16  1  0
 16 17  1  0
 17 18  1  0
 18 23  1  0
 18 19  1  0
 18 33  1  6
 19 20  1  0
 19 34  1  0
 19 35  1  0
 20 21  1  0
 20 36  1  0
 20 37  1  0
 21 22  1  0
 21 38  1  0
 21 39  1  0
 22 23  1  0
 22 40  1  0
 22 41  1  0
 23 42  1  6
M  END
>  <i_m_ct_stereo_status>  (277) 
1

>  <s_m_source_file>  (277) 
/var/tmp/pbs.5076255.sched01/tmpi2d1958y/88otlks1nw.sdf

>  <i_m_source_file_index>  (277) 
40

>  <i_lp_mmshare_version>  (277) 
48012

>  <i_f3d_flags>  (277) 
0

>  <s_epik_input>  (277) 
W0NIMl0xW0NIMl1bQ0gyXVtDSDJdW0NASF0oQyg9TylbTkhdMilbQ0BASF0xYyhjMjMpYzRjKHMzKWMobm5uNClONVtDSDJdW0NIMl1bQ0gyXVtDSDJdNQ==

>  <s_epik_cmdline>  (277) 
J2VwaWtfcHl0aG9uJywgJy1waHQnLCAnMi4wJywgJy1waCcsICc3LjAnLCAnLXRuJywgJzgnLCAnLW1hJywgJzIwMCcsICctaW1hZScsICc8aW5maWxlLm1hZT4nLCAnLW9tYWUnLCAnPG91dGZpbGUubWFlPic=

>  <r_epik_Ionization_Penalty>  (277) 
0.0013972

>  <r_epik_Ionization_Penalty_Charging>  (277) 
0

>  <r_epik_Ionization_Penalty_Neutral>  (277) 
0.0013972

>  <r_epik_State_Penalty>  (277) 
0.000769031

>  <r_epik_Charging_Adjusted_Penalty>  (277) 
0.000769031

>  <i_epik_Tot_Q>  (277) 
0

>  <i_epik_Tot_abs_Q>  (277) 
0

>  <s_lp_Force_Field>  (277) 
OPLS3e

>  <r_lp_Energy>  (277) 
30.9024

>  <b_lp_Chiralities_Consistent>  (277) 
1

>  <s_lp_Variant>  (277) 
78:0-1

>  <s_i_glide_gridfile>  (277) 
pfpi4k_grid

>  <i_i_glide_lignum>  (277) 
40

>  <i_i_glide_rotatable_bonds>  (277) 
1

>  <r_i_docking_score>  (277) 
-3.31672

>  <r_i_glide_ligand_efficiency>  (277) 
-0.144205

>  <r_i_glide_ligand_efficiency_sa>  (277) 
-0.410101

>  <r_i_glide_ligand_efficiency_ln>  (277) 
-0.802014

>  <r_i_glide_gscore>  (277) 
-3.31672

>  <r_i_glide_lipo>  (277) 
-0.589849

>  <r_i_glide_hbond>  (277) 
0

>  <r_i_glide_metal>  (277) 
-0

>  <r_i_glide_rewards>  (277) 
-1.23739

>  <r_i_glide_evdw>  (277) 
-28.5035

>  <r_i_glide_ecoul>  (277) 
-0.489996

>  <r_i_glide_erotb>  (277) 
0.173194

>  <r_i_glide_esite>  (277) 
-0.164001

>  <r_i_glide_emodel>  (277) 
-35.8584

>  <r_i_glide_energy>  (277) 
-28.9935

>  <r_i_glide_einternal>  (277) 
0.104897

>  <r_i_glide_intrahb_reward>  (277) 
-0

>  <i_i_glide_confnum>  (277) 
3

>  <i_i_glide_posenum>  (277) 
15

>  <r_i_glide_eff_state_penalty>  (277) 
0

>  <ligand_id>  (277) 
78

>  <original_smiles>  (277) 
O=C1Nc2sc3c(N4CCCC4)nnnc3c2C2CCCCC12

>  <smiles>  (277) 
[H]N1C(=O)C2([H])C([H])([H])C([H])([H])C([H])([H])C([H])([H])C2([H])c2c1sc1c(N3C([H])([H])C([H])([H])C([H])([H])C3([H])[H])nnnc21

$$$$
78:0:1
     RDKit          3D

 42 46  0  0  1  0  0  0  0  0999 V2000
    5.8227   -1.4763   -1.0796 O   0  0  0  0  0  0  0  0  0  0  0  0
    4.9325   -1.6731   -0.2536 C   0  0  0  0  0  0  0  0  0  0  0  0
    4.2399   -0.6515    0.2757 N   0  0  0  0  0  0  0  0  0  0  0  0
    3.2800   -0.8086    1.2106 C   0  0  0  0  0  0  0  0  0  0  0  0
    2.2593    0.5018    1.7001 S   0  0  0  0  0  0  0  0  0  0  0  0
    1.3784   -0.5362    2.8246 C   0  0  0  0  0  0  0  0  0  0  0  0
    0.3065   -0.2720    3.7112 C   0  0  0  0  0  0  0  0  0  0  0  0
   -0.3125    0.9832    3.8643 N   0  0  0  0  0  0  0  0  0  0  0  0
   -1.2600    1.2902    4.9245 C   0  0  0  0  0  0  0  0  0  0  0  0
   -1.4933    2.8016    4.8254 C   0  0  0  0  0  0  0  0  0  0  0  0
   -1.1995    3.1207    3.3589 C   0  0  0  0  0  0  0  0  0  0  0  0
   -0.1285    2.1071    2.9675 C   0  0  0  0  0  0  0  0  0  0  0  0
   -0.1583   -1.2819    4.4833 N   0  0  0  0  0  0  0  0  0  0  0  0
    0.3810   -2.5008    4.4085 N   0  0  0  0  0  0  0  0  0  0  0  0
    1.3904   -2.8137    3.5849 N   0  0  0  0  0  0  0  0  0  0  0  0
    1.9070   -1.8602    2.7956 C   0  0  0  0  0  0  0  0  0  0  0  0
    3.0110   -1.9866    1.8588 C   0  0  0  0  0  0  0  0  0  0  0  0
    3.8120   -3.2185    1.5539 C   0  0  2  0  0  0  0  0  0  0  0  0
    4.7808   -3.5732    2.7037 C   0  0  0  0  0  0  0  0  0  0  0  0
    5.4717   -4.9375    2.4822 C   0  0  0  0  0  0  0  0  0  0  0  0
    5.6474   -5.3003    0.9946 C   0  0  0  0  0  0  0  0  0  0  0  0
    5.7996   -4.0491    0.1159 C   0  0  0  0  0  0  0  0  0  0  0  0
    4.5613   -3.1191    0.1777 C   0  0  2  0  0  0  0  0  0  0  0  0
    4.4164    0.2829   -0.0640 H   0  0  0  0  0  0  0  0  0  0  0  0
   -2.1865    0.7422    4.7559 H   0  0  0  0  0  0  0  0  0  0  0  0
   -0.8712    1.0160    5.9061 H   0  0  0  0  0  0  0  0  0  0  0  0
   -2.4966    3.1004    5.1298 H   0  0  0  0  0  0  0  0  0  0  0  0
   -0.7780    3.3257    5.4610 H   0  0  0  0  0  0  0  0  0  0  0  0
   -2.0904    2.9572    2.7520 H   0  0  0  0  0  0  0  0  0  0  0  0
   -0.8647    4.1466    3.1965 H   0  0  0  0  0  0  0  0  0  0  0  0
    0.8667    2.5246    3.1238 H   0  0  0  0  0  0  0  0  0  0  0  0
   -0.2318    1.8155    1.9214 H   0  0  0  0  0  0  0  0  0  0  0  0
    3.1089   -4.0517    1.4714 H   0  0  0  0  0  0  0  0  0  0  0  0
    5.5317   -2.7844    2.8014 H   0  0  0  0  0  0  0  0  0  0  0  0
    4.2486   -3.5989    3.6567 H   0  0  0  0  0  0  0  0  0  0  0  0
    6.4430   -4.9230    2.9762 H   0  0  0  0  0  0  0  0  0  0  0  0
    4.9008   -5.7291    2.9706 H   0  0  0  0  0  0  0  0  0  0  0  0
    6.5115   -5.9545    0.8770 H   0  0  0  0  0  0  0  0  0  0  0  0
    4.7864   -5.8768    0.6535 H   0  0  0  0  0  0  0  0  0  0  0  0
    6.7057   -3.5204    0.4158 H   0  0  0  0  0  0  0  0  0  0  0  0
    5.9609   -4.3507   -0.9183 H   0  0  0  0  0  0  0  0  0  0  0  0
    3.8485   -3.4500   -0.5780 H   0  0  0  0  0  0  0  0  0  0  0  0
  1  2  2  0
  2 23  1  0
  2  3  1  0
  3  4  1  0
  3 24  1  0
  4 17  2  0
  4  5  1  0
  5  6  1  0
  6 16  2  0
  6  7  1  0
  7  8  1  0
  7 13  2  0
  8 12  1  0
  8  9  1  0
  9 10  1  0
  9 25  1  0
  9 26  1  0
 10 11  1  0
 10 27  1  0
 10 28  1  0
 11 12  1  0
 11 29  1  0
 11 30  1  0
 12 31  1  0
 12 32  1  0
 13 14  1  0
 14 15  2  0
 15 16  1  0
 16 17  1  0
 17 18  1  0
 18 23  1  0
 18 19  1  0
 18 33  1  6
 19 20  1  0
 19 34  1  0
 19 35  1  0
 20 21  1  0
 20 36  1  0
 20 37  1  0
 21 22  1  0
 21 38  1  0
 21 39  1  0
 22 23  1  0
 22 40  1  0
 22 41  1  0
 23 42  1  6
M  END
>  <i_m_ct_stereo_status>  (278) 
1

>  <s_m_source_file>  (278) 
/var/tmp/pbs.5076255.sched01/tmpi2d1958y/88otlks1nw.sdf

>  <i_m_source_file_index>  (278) 
40

>  <i_lp_mmshare_version>  (278) 
48012

>  <i_f3d_flags>  (278) 
0

>  <s_epik_input>  (278) 
W0NIMl0xW0NIMl1bQ0gyXVtDSDJdW0NASF0oQyg9TylbTkhdMilbQ0BASF0xYyhjMjMpYzRjKHMzKWMobm5uNClONVtDSDJdW0NIMl1bQ0gyXVtDSDJdNQ==

>  <s_epik_cmdline>  (278) 
J2VwaWtfcHl0aG9uJywgJy1waHQnLCAnMi4wJywgJy1waCcsICc3LjAnLCAnLXRuJywgJzgnLCAnLW1hJywgJzIwMCcsICctaW1hZScsICc8aW5maWxlLm1hZT4nLCAnLW9tYWUnLCAnPG91dGZpbGUubWFlPic=

>  <r_epik_Ionization_Penalty>  (278) 
0.0013972

>  <r_epik_Ionization_Penalty_Charging>  (278) 
0

>  <r_epik_Ionization_Penalty_Neutral>  (278) 
0.0013972

>  <r_epik_State_Penalty>  (278) 
0.000769031

>  <r_epik_Charging_Adjusted_Penalty>  (278) 
0.000769031

>  <i_epik_Tot_Q>  (278) 
0

>  <i_epik_Tot_abs_Q>  (278) 
0

>  <s_lp_Force_Field>  (278) 
OPLS3e

>  <r_lp_Energy>  (278) 
30.9024

>  <b_lp_Chiralities_Consistent>  (278) 
1

>  <s_lp_Variant>  (278) 
78:0-1

>  <s_i_glide_gridfile>  (278) 
pfpi4k_grid

>  <i_i_glide_lignum>  (278) 
40

>  <i_i_glide_rotatable_bonds>  (278) 
1

>  <r_i_docking_score>  (278) 
-3.20392

>  <r_i_glide_ligand_efficiency>  (278) 
-0.139301

>  <r_i_glide_ligand_efficiency_sa>  (278) 
-0.396153

>  <r_i_glide_ligand_efficiency_ln>  (278) 
-0.774736

>  <r_i_glide_gscore>  (278) 
-3.20392

>  <r_i_glide_lipo>  (278) 
-0.22128

>  <r_i_glide_hbond>  (278) 
-0.178026

>  <r_i_glide_metal>  (278) 
-0

>  <r_i_glide_rewards>  (278) 
-1.16304

>  <r_i_glide_evdw>  (278) 
-28.2817

>  <r_i_glide_ecoul>  (278) 
-2.31908

>  <r_i_glide_erotb>  (278) 
0.173194

>  <r_i_glide_esite>  (278) 
-0.0528188

>  <r_i_glide_emodel>  (278) 
-37.1584

>  <r_i_glide_energy>  (278) 
-30.6008

>  <r_i_glide_einternal>  (278) 
0.175094

>  <r_i_glide_intrahb_reward>  (278) 
-0

>  <i_i_glide_confnum>  (278) 
2

>  <i_i_glide_posenum>  (278) 
12

>  <r_i_glide_eff_state_penalty>  (278) 
0

>  <ligand_id>  (278) 
78

>  <original_smiles>  (278) 
O=C1Nc2sc3c(N4CCCC4)nnnc3c2C2CCCCC12

>  <smiles>  (278) 
[H]N1C(=O)C2([H])C([H])([H])C([H])([H])C([H])([H])C([H])([H])C2([H])c2c1sc1c(N3C([H])([H])C([H])([H])C([H])([H])C3([H])[H])nnnc21

$$$$
78:0:2
     RDKit          3D

 42 46  0  0  1  0  0  0  0  0999 V2000
    2.9347  -10.7387    3.7305 O   0  0  0  0  0  0  0  0  0  0  0  0
    2.8760   -9.7229    3.0434 C   0  0  0  0  0  0  0  0  0  0  0  0
    3.9554   -8.9463    2.8588 N   0  0  0  0  0  0  0  0  0  0  0  0
    3.9305   -7.7996    2.1490 C   0  0  0  0  0  0  0  0  0  0  0  0
    5.3810   -6.9430    1.7589 S   0  0  0  0  0  0  0  0  0  0  0  0
    4.4774   -5.7065    0.8873 C   0  0  0  0  0  0  0  0  0  0  0  0
    4.8891   -4.5421    0.1965 C   0  0  0  0  0  0  0  0  0  0  0  0
    6.2256   -4.1082    0.0793 N   0  0  0  0  0  0  0  0  0  0  0  0
    7.3696   -4.7324    0.7144 C   0  0  0  0  0  0  0  0  0  0  0  0
    8.5922   -4.0462    0.1133 C   0  0  0  0  0  0  0  0  0  0  0  0
    8.0749   -2.6762   -0.3206 C   0  0  0  0  0  0  0  0  0  0  0  0
    6.6111   -2.9333   -0.6897 C   0  0  0  0  0  0  0  0  0  0  0  0
    3.9488   -3.7707   -0.3895 N   0  0  0  0  0  0  0  0  0  0  0  0
    2.6569   -4.0992   -0.3199 N   0  0  0  0  0  0  0  0  0  0  0  0
    2.2094   -5.1864    0.3199 N   0  0  0  0  0  0  0  0  0  0  0  0
    3.0815   -5.9955    0.9276 C   0  0  0  0  0  0  0  0  0  0  0  0
    2.7902   -7.2025    1.6777 C   0  0  0  0  0  0  0  0  0  0  0  0
    1.4432   -7.8192    1.9312 C   0  0  2  0  0  0  0  0  0  0  0  0
    0.6213   -7.0146    2.9592 C   0  0  0  0  0  0  0  0  0  0  0  0
   -0.8265   -7.5403    3.0901 C   0  0  0  0  0  0  0  0  0  0  0  0
   -0.9632   -9.0438    2.7850 C   0  0  0  0  0  0  0  0  0  0  0  0
    0.3168   -9.8179    3.1374 C   0  0  0  0  0  0  0  0  0  0  0  0
    1.5531   -9.3295    2.3357 C   0  0  2  0  0  0  0  0  0  0  0  0
    4.8363   -9.2408    3.2565 H   0  0  0  0  0  0  0  0  0  0  0  0
    7.3108   -4.5747    1.7921 H   0  0  0  0  0  0  0  0  0  0  0  0
    7.4160   -5.8002    0.5080 H   0  0  0  0  0  0  0  0  0  0  0  0
    9.4165   -3.9907    0.8222 H   0  0  0  0  0  0  0  0  0  0  0  0
    8.9296   -4.6067   -0.7603 H   0  0  0  0  0  0  0  0  0  0  0  0
    8.1268   -1.9862    0.5222 H   0  0  0  0  0  0  0  0  0  0  0  0
    8.6557   -2.2547   -1.1423 H   0  0  0  0  0  0  0  0  0  0  0  0
    6.5113   -3.1542   -1.7533 H   0  0  0  0  0  0  0  0  0  0  0  0
    5.9895   -2.0669   -0.4595 H   0  0  0  0  0  0  0  0  0  0  0  0
    0.8889   -7.7869    0.9903 H   0  0  0  0  0  0  0  0  0  0  0  0
    1.1215   -7.0615    3.9283 H   0  0  0  0  0  0  0  0  0  0  0  0
    0.5960   -5.9579    2.6869 H   0  0  0  0  0  0  0  0  0  0  0  0
   -1.1820   -7.3327    4.1000 H   0  0  0  0  0  0  0  0  0  0  0  0
   -1.4892   -6.9974    2.4162 H   0  0  0  0  0  0  0  0  0  0  0  0
   -1.8128   -9.4545    3.3292 H   0  0  0  0  0  0  0  0  0  0  0  0
   -1.1887   -9.1860    1.7262 H   0  0  0  0  0  0  0  0  0  0  0  0
    0.4855   -9.7348    4.2123 H   0  0  0  0  0  0  0  0  0  0  0  0
    0.1637  -10.8792    2.9467 H   0  0  0  0  0  0  0  0  0  0  0  0
    1.5922   -9.8811    1.3964 H   0  0  0  0  0  0  0  0  0  0  0  0
  1  2  2  0
  2 23  1  0
  2  3  1  0
  3  4  1  0
  3 24  1  0
  4 17  2  0
  4  5  1  0
  5  6  1  0
  6 16  2  0
  6  7  1  0
  7  8  1  0
  7 13  2  0
  8 12  1  0
  8  9  1  0
  9 10  1  0
  9 25  1  0
  9 26  1  0
 10 11  1  0
 10 27  1  0
 10 28  1  0
 11 12  1  0
 11 29  1  0
 11 30  1  0
 12 31  1  0
 12 32  1  0
 13 14  1  0
 14 15  2  0
 15 16  1  0
 16 17  1  0
 17 18  1  0
 18 23  1  0
 18 19  1  0
 18 33  1  6
 19 20  1  0
 19 34  1  0
 19 35  1  0
 20 21  1  0
 20 36  1  0
 20 37  1  0
 21 22  1  0
 21 38  1  0
 21 39  1  0
 22 23  1  0
 22 40  1  0
 22 41  1  0
 23 42  1  6
M  END
>  <i_m_ct_stereo_status>  (279) 
1

>  <s_m_source_file>  (279) 
/var/tmp/pbs.5076255.sched01/tmpi2d1958y/88otlks1nw.sdf

>  <i_m_source_file_index>  (279) 
40

>  <i_lp_mmshare_version>  (279) 
48012

>  <i_f3d_flags>  (279) 
0

>  <s_epik_input>  (279) 
W0NIMl0xW0NIMl1bQ0gyXVtDSDJdW0NASF0oQyg9TylbTkhdMilbQ0BASF0xYyhjMjMpYzRjKHMzKWMobm5uNClONVtDSDJdW0NIMl1bQ0gyXVtDSDJdNQ==

>  <s_epik_cmdline>  (279) 
J2VwaWtfcHl0aG9uJywgJy1waHQnLCAnMi4wJywgJy1waCcsICc3LjAnLCAnLXRuJywgJzgnLCAnLW1hJywgJzIwMCcsICctaW1hZScsICc8aW5maWxlLm1hZT4nLCAnLW9tYWUnLCAnPG91dGZpbGUubWFlPic=

>  <r_epik_Ionization_Penalty>  (279) 
0.0013972

>  <r_epik_Ionization_Penalty_Charging>  (279) 
0

>  <r_epik_Ionization_Penalty_Neutral>  (279) 
0.0013972

>  <r_epik_State_Penalty>  (279) 
0.000769031

>  <r_epik_Charging_Adjusted_Penalty>  (279) 
0.000769031

>  <i_epik_Tot_Q>  (279) 
0

>  <i_epik_Tot_abs_Q>  (279) 
0

>  <s_lp_Force_Field>  (279) 
OPLS3e

>  <r_lp_Energy>  (279) 
30.9024

>  <b_lp_Chiralities_Consistent>  (279) 
1

>  <s_lp_Variant>  (279) 
78:0-1

>  <s_i_glide_gridfile>  (279) 
pfpi4k_grid

>  <i_i_glide_lignum>  (279) 
40

>  <i_i_glide_rotatable_bonds>  (279) 
1

>  <r_i_docking_score>  (279) 
-3.18528

>  <r_i_glide_ligand_efficiency>  (279) 
-0.138491

>  <r_i_glide_ligand_efficiency_sa>  (279) 
-0.393849

>  <r_i_glide_ligand_efficiency_ln>  (279) 
-0.77023

>  <r_i_glide_gscore>  (279) 
-3.18528

>  <r_i_glide_lipo>  (279) 
-0.472148

>  <r_i_glide_hbond>  (279) 
0

>  <r_i_glide_metal>  (279) 
-0

>  <r_i_glide_rewards>  (279) 
-1.26745

>  <r_i_glide_evdw>  (279) 
-33.2208

>  <r_i_glide_ecoul>  (279) 
1.21084

>  <r_i_glide_erotb>  (279) 
0.173194

>  <r_i_glide_esite>  (279) 
-0.139465

>  <r_i_glide_emodel>  (279) 
-38.4777

>  <r_i_glide_energy>  (279) 
-32.01

>  <r_i_glide_einternal>  (279) 
0.305618

>  <r_i_glide_intrahb_reward>  (279) 
-0

>  <i_i_glide_confnum>  (279) 
5

>  <i_i_glide_posenum>  (279) 
10

>  <r_i_glide_eff_state_penalty>  (279) 
0

>  <ligand_id>  (279) 
78

>  <original_smiles>  (279) 
O=C1Nc2sc3c(N4CCCC4)nnnc3c2C2CCCCC12

>  <smiles>  (279) 
[H]N1C(=O)C2([H])C([H])([H])C([H])([H])C([H])([H])C([H])([H])C2([H])c2c1sc1c(N3C([H])([H])C([H])([H])C([H])([H])C3([H])[H])nnnc21

$$$$
79:0:0
     RDKit          3D

 67 72  0  0  1  0  0  0  0  0999 V2000
    9.6840   -2.8639    0.7976 C   0  0  0  0  0  0  0  0  0  0  0  0
    8.6320   -3.5446   -0.0686 C   0  0  0  0  0  0  0  0  0  0  0  0
    8.9922   -4.2567   -1.0021 O   0  0  0  0  0  0  0  0  0  0  0  0
    7.3744   -3.2766    0.3351 O   0  0  0  0  0  0  0  0  0  0  0  0
    6.2199   -3.7303   -0.3865 C   0  0  2  0  0  0  0  0  0  0  0  0
    5.8446   -2.5346   -1.2971 C   0  0  0  0  0  0  0  0  0  0  0  0
    4.3976   -2.5210   -1.8194 C   0  0  0  0  0  0  0  0  0  0  0  0
    4.0763   -1.0794   -2.2957 C   0  0  0  0  0  0  0  0  0  0  0  0
    4.3230   -3.4145   -3.0922 C   0  0  0  0  0  0  0  0  0  0  0  0
    3.4478   -2.9974   -0.6604 C   0  0  2  0  0  0  0  0  0  0  0  0
    2.1657   -3.0736   -1.2462 O   0  0  0  0  0  0  0  0  0  0  0  0
    3.4224   -1.9802    0.5574 C   0  0  1  0  0  0  0  0  0  0  0  0
    2.2228   -2.1399    1.2910 O   0  0  0  0  0  0  0  0  0  0  0  0
    4.6265   -2.0892    1.5568 C   0  0  1  0  0  0  0  0  0  0  0  0
    4.3184   -1.3897    2.7493 O   0  0  0  0  0  0  0  0  0  0  0  0
    4.8413   -3.5741    1.8474 C   0  0  2  0  0  0  0  0  0  0  0  0
    5.8501   -3.9998    2.7627 O   0  0  0  0  0  0  0  0  0  0  0  0
    5.7238   -5.4037    2.6687 C   0  0  1  0  0  0  0  0  0  0  0  0
    5.8176   -5.6574    1.1681 C   0  0  1  0  0  0  0  0  0  0  0  0
    5.4890   -7.1392    1.2028 C   0  0  0  0  0  0  0  0  0  0  0  0
    6.0429   -7.6024    2.3403 C   0  0  0  0  0  0  0  0  0  0  0  0
    5.8078   -8.8353    3.2008 C   0  0  1  0  0  0  0  0  0  0  0  0
    5.9533  -10.0721    2.5222 O   0  0  0  0  0  0  0  0  0  0  0  0
    6.8091   -8.6393    4.3407 C   0  0  0  0  0  0  0  0  0  0  0  0
    6.3262   -7.2109    4.6238 C   0  0  2  0  0  0  0  0  0  0  0  0
    6.9660   -6.5056    5.8302 C   0  0  0  0  0  0  0  0  0  0  0  0
    4.8381   -7.6061    4.8400 C   0  0  0  0  0  0  0  0  0  0  0  0
    4.5958   -8.6570    3.8748 O   0  0  0  0  0  0  0  0  0  0  0  0
    6.6070   -6.5275    3.2451 C   0  0  2  0  0  0  0  0  0  0  0  0
    8.1187   -6.2736    2.9757 C   0  0  0  0  0  0  0  0  0  0  0  0
    5.1362   -4.3870    0.5613 C   0  0  2  0  0  0  0  0  0  0  0  0
    3.8307   -4.4617   -0.2308 C   0  0  1  0  0  0  0  0  0  0  0  0
    2.8092   -5.1390    0.4965 O   0  0  0  0  0  0  0  0  0  0  0  0
    9.4396   -1.8083    0.9002 H   0  0  0  0  0  0  0  0  0  0  0  0
   10.6606   -2.9216    0.3338 H   0  0  0  0  0  0  0  0  0  0  0  0
    9.7409   -3.3594    1.7638 H   0  0  0  0  0  0  0  0  0  0  0  0
    6.4631   -4.5177   -1.0805 H   0  0  0  0  0  0  0  0  0  0  0  0
    6.0697   -1.5880   -0.8098 H   0  0  0  0  0  0  0  0  0  0  0  0
    6.5307   -2.5465   -2.1451 H   0  0  0  0  0  0  0  0  0  0  0  0
    3.0193   -0.9540   -2.5426 H   0  0  0  0  0  0  0  0  0  0  0  0
    4.6476   -0.8111   -3.1851 H   0  0  0  0  0  0  0  0  0  0  0  0
    4.3267   -0.3255   -1.5463 H   0  0  0  0  0  0  0  0  0  0  0  0
    3.2972   -3.5553   -3.4391 H   0  0  0  0  0  0  0  0  0  0  0  0
    4.7601   -4.4012   -2.9508 H   0  0  0  0  0  0  0  0  0  0  0  0
    4.8749   -2.9673   -3.9166 H   0  0  0  0  0  0  0  0  0  0  0  0
    1.7425   -2.2110   -1.1551 H   0  0  0  0  0  0  0  0  0  0  0  0
    3.3512   -0.9499    0.2191 H   0  0  0  0  0  0  0  0  0  0  0  0
    1.5489   -1.7271    0.7613 H   0  0  0  0  0  0  0  0  0  0  0  0
    5.5232   -1.6238    1.1692 H   0  0  0  0  0  0  0  0  0  0  0  0
    3.5311   -1.7850    3.0960 H   0  0  0  0  0  0  0  0  0  0  0  0
    3.8926   -3.8956    2.2870 H   0  0  0  0  0  0  0  0  0  0  0  0
    4.7100   -5.6309    3.0001 H   0  0  0  0  0  0  0  0  0  0  0  0
    6.8479   -5.6667    0.8209 H   0  0  0  0  0  0  0  0  0  0  0  0
    4.8827   -7.6855    0.4924 H   0  0  0  0  0  0  0  0  0  0  0  0
    5.1807  -10.2254    1.9931 H   0  0  0  0  0  0  0  0  0  0  0  0
    6.6347   -9.3382    5.1597 H   0  0  0  0  0  0  0  0  0  0  0  0
    7.8374   -8.7407    3.9908 H   0  0  0  0  0  0  0  0  0  0  0  0
    6.5676   -5.5001    5.9441 H   0  0  0  0  0  0  0  0  0  0  0  0
    8.0451   -6.4203    5.7371 H   0  0  0  0  0  0  0  0  0  0  0  0
    6.7656   -7.0453    6.7553 H   0  0  0  0  0  0  0  0  0  0  0  0
    4.6890   -8.0041    5.8488 H   0  0  0  0  0  0  0  0  0  0  0  0
    4.1372   -6.7783    4.7282 H   0  0  0  0  0  0  0  0  0  0  0  0
    8.3756   -5.2315    3.1528 H   0  0  0  0  0  0  0  0  0  0  0  0
    8.4073   -6.5010    1.9477 H   0  0  0  0  0  0  0  0  0  0  0  0
    8.7843   -6.8687    3.5966 H   0  0  0  0  0  0  0  0  0  0  0  0
    4.0044   -5.0656   -1.1061 H   0  0  0  0  0  0  0  0  0  0  0  0
    3.0843   -6.0306    0.6521 H   0  0  0  0  0  0  0  0  0  0  0  0
  1  2  1  0
  1 34  1  0
  1 35  1  0
  1 36  1  0
  2  3  2  0
  2  4  1  0
  4  5  1  0
 31  5  1  6
  5  6  1  0
  5 37  1  6
  6  7  1  0
  6 38  1  0
  6 39  1  0
  7  8  1  0
  7  9  1  0
  7 10  1  0
  8 40  1  0
  8 41  1  0
  8 42  1  0
  9 43  1  0
  9 44  1  0
  9 45  1  0
 10 32  1  0
 10 11  1  6
 10 12  1  0
 11 46  1  0
 12 13  1  0
 12 14  1  0
 12 47  1  6
 13 48  1  0
 14 15  1  0
 14 16  1  0
 14 49  1  6
 15 50  1  0
 16 31  1  0
 16 17  1  0
 16 51  1  1
 17 18  1  0
 18 29  1  0
 18 19  1  0
 18 52  1  1
 19 20  1  0
 19 31  1  0
 19 53  1  6
 20 21  2  0
 20 54  1  0
 21 29  1  0
 21 22  1  0
 22 28  1  0
 22 23  1  6
 22 24  1  0
 23 55  1  0
 24 25  1  0
 24 56  1  0
 24 57  1  0
 25 26  1  1
 25 27  1  0
 25 29  1  0
 26 58  1  0
 26 59  1  0
 26 60  1  0
 27 28  1  0
 27 61  1  0
 27 62  1  0
 29 30  1  6
 30 63  1  0
 30 64  1  0
 30 65  1  0
 31 32  1  0
 32 33  1  0
 32 66  1  6
 33 67  1  0
M  END
>  <i_m_ct_stereo_status>  (280) 
1

>  <s_m_source_file>  (280) 
/var/tmp/pbs.5076255.sched01/tmpi2d1958y/88otlks1nw.sdf

>  <i_m_source_file_index>  (280) 
41

>  <i_lp_mmshare_version>  (280) 
48012

>  <i_f3d_flags>  (280) 
0

>  <s_epik_input>  (280) 
W0NIM11DKD1PKU9bQ0BASF0xW0NIMl1DKFtDSDNdKShbQ0gzXSlbQ0BAXShbT0hdKShbQ0BASF0yW09IXSlbQ0BASF0oW09IXSlbQ0BASF0oW09IXSlbQ0BASF0oW0NAXTEyMylPW0NASF00W0NASF0zW0NIXT1DNVtDQEBdNihbT0hdKVtDSDJdW0NAXShbQ0gzXSkoW0NIMl1PNilbQ0BdNDVbQ0gzXQ==

>  <s_epik_cmdline>  (280) 
J2VwaWtfcHl0aG9uJywgJy1waHQnLCAnMi4wJywgJy1waCcsICc3LjAnLCAnLXRuJywgJzgnLCAnLW1hJywgJzIwMCcsICctaW1hZScsICc8aW5maWxlLm1hZT4nLCAnLW9tYWUnLCAnPG91dGZpbGUubWFlPic=

>  <r_lp_tautomer_probability>  (280) 
1

>  <r_epik_Ionization_Penalty>  (280) 
4.52891e-07

>  <r_epik_Ionization_Penalty_Charging>  (280) 
0

>  <r_epik_Ionization_Penalty_Neutral>  (280) 
4.52891e-07

>  <r_epik_State_Penalty>  (280) 
-0

>  <r_epik_Charging_Adjusted_Penalty>  (280) 
0

>  <i_epik_Tot_Q>  (280) 
0

>  <i_epik_Tot_abs_Q>  (280) 
0

>  <s_epik_Chemistry_Notes>  (280) 
This compound has an ester and may undergo hydrolysis at high or low pH.

>  <s_lp_Force_Field>  (280) 
OPLS3e

>  <r_lp_Energy>  (280) 
91.5603

>  <b_lp_Chiralities_Consistent>  (280) 
1

>  <s_lp_Variant>  (280) 
79:0-1

>  <s_i_glide_gridfile>  (280) 
pfpi4k_grid

>  <i_i_glide_lignum>  (280) 
41

>  <i_i_glide_rotatable_bonds>  (280) 
7

>  <r_i_docking_score>  (280) 
-3.25043

>  <r_i_glide_ligand_efficiency>  (280) 
-0.0984978

>  <r_i_glide_ligand_efficiency_sa>  (280) 
-0.315935

>  <r_i_glide_ligand_efficiency_ln>  (280) 
-0.722879

>  <r_i_glide_gscore>  (280) 
-3.25043

>  <r_i_glide_lipo>  (280) 
-0.455355

>  <r_i_glide_hbond>  (280) 
-0.084476

>  <r_i_glide_metal>  (280) 
-0

>  <r_i_glide_rewards>  (280) 
-0.331675

>  <r_i_glide_evdw>  (280) 
-26.1653

>  <r_i_glide_ecoul>  (280) 
-7.75154

>  <r_i_glide_erotb>  (280) 
0.0926997

>  <r_i_glide_esite>  (280) 
-0.000627859

>  <r_i_glide_emodel>  (280) 
-39.1611

>  <r_i_glide_energy>  (280) 
-33.9168

>  <r_i_glide_einternal>  (280) 
2.02108

>  <r_i_glide_intrahb_reward>  (280) 
-0

>  <i_i_glide_confnum>  (280) 
4

>  <i_i_glide_posenum>  (280) 
31

>  <r_i_glide_eff_state_penalty>  (280) 
0

>  <ligand_id>  (280) 
79

>  <original_smiles>  (280) 
CC(=O)OC1CC(C)(C)C2(O)C(O)C(O)C3OC4C(C=C5C6(O)CC(C)(CO6)C54C)C13C2O

>  <smiles>  (280) 
[H]OC12OC([H])([H])C(C([H])([H])[H])(C1([H])[H])C1(C([H])([H])[H])C2=C([H])C2([H])C1([H])OC1([H])C([H])(O[H])C([H])(O[H])C3(O[H])C([H])(O[H])C12C([H])(OC(=O)C([H])([H])[H])C([H])([H])C3(C([H])([H])[H])C([H])([H])[H]

$$$$
79:0:1
     RDKit          3D

 67 72  0  0  1  0  0  0  0  0999 V2000
    8.0418   -3.6738   -0.4046 C   0  0  0  0  0  0  0  0  0  0  0  0
    7.9932   -4.5130    0.8683 C   0  0  0  0  0  0  0  0  0  0  0  0
    8.9949   -5.0985    1.2617 O   0  0  0  0  0  0  0  0  0  0  0  0
    6.8289   -4.5283    1.5623 O   0  0  0  0  0  0  0  0  0  0  0  0
    5.5414   -4.1498    1.0742 C   0  0  2  0  0  0  0  0  0  0  0  0
    5.5728   -2.6558    0.6693 C   0  0  0  0  0  0  0  0  0  0  0  0
    4.2129   -1.9552    0.5470 C   0  0  0  0  0  0  0  0  0  0  0  0
    4.4802   -0.4234    0.5588 C   0  0  0  0  0  0  0  0  0  0  0  0
    3.6184   -2.2958   -0.8412 C   0  0  0  0  0  0  0  0  0  0  0  0
    3.2833   -2.3997    1.7438 C   0  0  2  0  0  0  0  0  0  0  0  0
    2.0142   -1.7936    1.5842 O   0  0  0  0  0  0  0  0  0  0  0  0
    3.8506   -1.9168    3.1518 C   0  0  1  0  0  0  0  0  0  0  0  0
    2.8158   -1.8504    4.1279 O   0  0  0  0  0  0  0  0  0  0  0  0
    5.0210   -2.7727    3.7525 C   0  0  1  0  0  0  0  0  0  0  0  0
    5.1781   -2.4745    5.1283 O   0  0  0  0  0  0  0  0  0  0  0  0
    4.6915   -4.2517    3.5680 C   0  0  2  0  0  0  0  0  0  0  0  0
    5.5586   -5.2969    4.0472 O   0  0  0  0  0  0  0  0  0  0  0  0
    4.7830   -6.4270    3.6723 C   0  0  1  0  0  0  0  0  0  0  0  0
    4.5437   -6.1912    2.1897 C   0  0  1  0  0  0  0  0  0  0  0  0
    3.6359   -7.3824    1.9456 C   0  0  0  0  0  0  0  0  0  0  0  0
    4.0491   -8.3587    2.7897 C   0  0  0  0  0  0  0  0  0  0  0  0
    3.3993   -9.5998    3.3834 C   0  0  1  0  0  0  0  0  0  0  0  0
    2.8600  -10.5010    2.4646 O   0  0  0  0  0  0  0  0  0  0  0  0
    4.5363  -10.1816    4.2202 C   0  0  0  0  0  0  0  0  0  0  0  0
    4.7682   -8.8512    4.9448 C   0  0  2  0  0  0  0  0  0  0  0  0
    5.7902   -8.8760    6.0897 C   0  0  0  0  0  0  0  0  0  0  0  0
    3.2995   -8.6887    5.4501 C   0  0  0  0  0  0  0  0  0  0  0  0
    2.5043   -9.1680    4.3543 O   0  0  0  0  0  0  0  0  0  0  0  0
    5.1395   -7.9224    3.7413 C   0  0  2  0  0  0  0  0  0  0  0  0
    6.5715   -8.1642    3.1917 C   0  0  0  0  0  0  0  0  0  0  0  0
    4.4030   -4.6345    2.0900 C   0  0  2  0  0  0  0  0  0  0  0  0
    3.0729   -3.9554    1.6981 C   0  0  1  0  0  0  0  0  0  0  0  0
    1.9954   -4.3300    2.5321 O   0  0  0  0  0  0  0  0  0  0  0  0
    7.1913   -3.8671   -1.0733 H   0  0  0  0  0  0  0  0  0  0  0  0
    8.9463   -3.8103   -0.9656 H   0  0  0  0  0  0  0  0  0  0  0  0
    7.9167   -2.6090   -0.1625 H   0  0  0  0  0  0  0  0  0  0  0  0
    5.3409   -4.7066    0.1516 H   0  0  0  0  0  0  0  0  0  0  0  0
    6.1976   -2.0490    1.3151 H   0  0  0  0  0  0  0  0  0  0  0  0
    6.0708   -2.6189   -0.2603 H   0  0  0  0  0  0  0  0  0  0  0  0
    3.5864    0.2080    0.5942 H   0  0  0  0  0  0  0  0  0  0  0  0
    5.0213   -0.1791   -0.3561 H   0  0  0  0  0  0  0  0  0  0  0  0
    5.1468   -0.1104    1.3592 H   0  0  0  0  0  0  0  0  0  0  0  0
    2.6408   -1.9124   -1.0056 H   0  0  0  0  0  0  0  0  0  0  0  0
    3.6179   -3.3578   -1.0590 H   0  0  0  0  0  0  0  0  0  0  0  0
    4.2121   -1.8313   -1.6240 H   0  0  0  0  0  0  0  0  0  0  0  0
    1.9320   -1.5367    0.6743 H   0  0  0  0  0  0  0  0  0  0  0  0
    4.2078   -0.8938    3.0959 H   0  0  0  0  0  0  0  0  0  0  0  0
    2.5102   -2.7359    4.2434 H   0  0  0  0  0  0  0  0  0  0  0  0
    5.9736   -2.5612    3.2847 H   0  0  0  0  0  0  0  0  0  0  0  0
    5.3761   -1.5537    5.1983 H   0  0  0  0  0  0  0  0  0  0  0  0
    3.7847   -4.3422    4.1852 H   0  0  0  0  0  0  0  0  0  0  0  0
    3.8466   -6.3427    4.2119 H   0  0  0  0  0  0  0  0  0  0  0  0
    5.4327   -6.4766    1.6243 H   0  0  0  0  0  0  0  0  0  0  0  0
    2.7579   -7.3735    1.3328 H   0  0  0  0  0  0  0  0  0  0  0  0
    2.9083  -11.3655    2.8487 H   0  0  0  0  0  0  0  0  0  0  0  0
    4.1869  -10.9909    4.8720 H   0  0  0  0  0  0  0  0  0  0  0  0
    5.3616  -10.5365    3.6016 H   0  0  0  0  0  0  0  0  0  0  0  0
    5.8852   -7.8883    6.5432 H   0  0  0  0  0  0  0  0  0  0  0  0
    6.7822   -9.1742    5.7557 H   0  0  0  0  0  0  0  0  0  0  0  0
    5.4942   -9.5683    6.8713 H   0  0  0  0  0  0  0  0  0  0  0  0
    3.1117   -9.3329    6.3136 H   0  0  0  0  0  0  0  0  0  0  0  0
    3.0128   -7.6702    5.7027 H   0  0  0  0  0  0  0  0  0  0  0  0
    7.2581   -7.4041    3.5688 H   0  0  0  0  0  0  0  0  0  0  0  0
    6.6041   -8.1307    2.0998 H   0  0  0  0  0  0  0  0  0  0  0  0
    6.9868   -9.1430    3.4606 H   0  0  0  0  0  0  0  0  0  0  0  0
    2.7884   -4.2920    0.6976 H   0  0  0  0  0  0  0  0  0  0  0  0
    1.4001   -3.5899    2.4995 H   0  0  0  0  0  0  0  0  0  0  0  0
  1  2  1  0
  1 34  1  0
  1 35  1  0
  1 36  1  0
  2  3  2  0
  2  4  1  0
  4  5  1  0
 31  5  1  6
  5  6  1  0
  5 37  1  6
  6  7  1  0
  6 38  1  0
  6 39  1  0
  7  8  1  0
  7  9  1  0
  7 10  1  0
  8 40  1  0
  8 41  1  0
  8 42  1  0
  9 43  1  0
  9 44  1  0
  9 45  1  0
 10 32  1  0
 10 11  1  6
 10 12  1  0
 11 46  1  0
 12 13  1  0
 12 14  1  0
 12 47  1  6
 13 48  1  0
 14 15  1  0
 14 16  1  0
 14 49  1  6
 15 50  1  0
 16 31  1  0
 16 17  1  0
 16 51  1  1
 17 18  1  0
 18 29  1  0
 18 19  1  0
 18 52  1  1
 19 20  1  0
 19 31  1  0
 19 53  1  6
 20 21  2  0
 20 54  1  0
 21 29  1  0
 21 22  1  0
 22 28  1  0
 22 23  1  6
 22 24  1  0
 23 55  1  0
 24 25  1  0
 24 56  1  0
 24 57  1  0
 25 26  1  1
 25 27  1  0
 25 29  1  0
 26 58  1  0
 26 59  1  0
 26 60  1  0
 27 28  1  0
 27 61  1  0
 27 62  1  0
 29 30  1  6
 30 63  1  0
 30 64  1  0
 30 65  1  0
 31 32  1  0
 32 33  1  0
 32 66  1  6
 33 67  1  0
M  END
>  <i_m_ct_stereo_status>  (281) 
1

>  <s_m_source_file>  (281) 
/var/tmp/pbs.5076255.sched01/tmpi2d1958y/88otlks1nw.sdf

>  <i_m_source_file_index>  (281) 
41

>  <i_lp_mmshare_version>  (281) 
48012

>  <i_f3d_flags>  (281) 
0

>  <s_epik_input>  (281) 
W0NIM11DKD1PKU9bQ0BASF0xW0NIMl1DKFtDSDNdKShbQ0gzXSlbQ0BAXShbT0hdKShbQ0BASF0yW09IXSlbQ0BASF0oW09IXSlbQ0BASF0oW09IXSlbQ0BASF0oW0NAXTEyMylPW0NASF00W0NASF0zW0NIXT1DNVtDQEBdNihbT0hdKVtDSDJdW0NAXShbQ0gzXSkoW0NIMl1PNilbQ0BdNDVbQ0gzXQ==

>  <s_epik_cmdline>  (281) 
J2VwaWtfcHl0aG9uJywgJy1waHQnLCAnMi4wJywgJy1waCcsICc3LjAnLCAnLXRuJywgJzgnLCAnLW1hJywgJzIwMCcsICctaW1hZScsICc8aW5maWxlLm1hZT4nLCAnLW9tYWUnLCAnPG91dGZpbGUubWFlPic=

>  <r_lp_tautomer_probability>  (281) 
1

>  <r_epik_Ionization_Penalty>  (281) 
4.52891e-07

>  <r_epik_Ionization_Penalty_Charging>  (281) 
0

>  <r_epik_Ionization_Penalty_Neutral>  (281) 
4.52891e-07

>  <r_epik_State_Penalty>  (281) 
-0

>  <r_epik_Charging_Adjusted_Penalty>  (281) 
0

>  <i_epik_Tot_Q>  (281) 
0

>  <i_epik_Tot_abs_Q>  (281) 
0

>  <s_epik_Chemistry_Notes>  (281) 
This compound has an ester and may undergo hydrolysis at high or low pH.

>  <s_lp_Force_Field>  (281) 
OPLS3e

>  <r_lp_Energy>  (281) 
91.5603

>  <b_lp_Chiralities_Consistent>  (281) 
1

>  <s_lp_Variant>  (281) 
79:0-1

>  <s_i_glide_gridfile>  (281) 
pfpi4k_grid

>  <i_i_glide_lignum>  (281) 
41

>  <i_i_glide_rotatable_bonds>  (281) 
7

>  <r_i_docking_score>  (281) 
-2.67699

>  <r_i_glide_ligand_efficiency>  (281) 
-0.081121

>  <r_i_glide_ligand_efficiency_sa>  (281) 
-0.260198

>  <r_i_glide_ligand_efficiency_ln>  (281) 
-0.59535

>  <r_i_glide_gscore>  (281) 
-2.67699

>  <r_i_glide_lipo>  (281) 
-0.55417

>  <r_i_glide_hbond>  (281) 
0

>  <r_i_glide_metal>  (281) 
-0

>  <r_i_glide_rewards>  (281) 
-0.434644

>  <r_i_glide_evdw>  (281) 
-24.4846

>  <r_i_glide_ecoul>  (281) 
-3.64132

>  <r_i_glide_erotb>  (281) 
0.0926997

>  <r_i_glide_esite>  (281) 
-0.0104523

>  <r_i_glide_emodel>  (281) 
-26.4315

>  <r_i_glide_energy>  (281) 
-28.1259

>  <r_i_glide_einternal>  (281) 
9.50237

>  <r_i_glide_intrahb_reward>  (281) 
-0

>  <i_i_glide_confnum>  (281) 
3

>  <i_i_glide_posenum>  (281) 
28

>  <r_i_glide_eff_state_penalty>  (281) 
0

>  <ligand_id>  (281) 
79

>  <original_smiles>  (281) 
CC(=O)OC1CC(C)(C)C2(O)C(O)C(O)C3OC4C(C=C5C6(O)CC(C)(CO6)C54C)C13C2O

>  <smiles>  (281) 
[H]OC12OC([H])([H])C(C([H])([H])[H])(C1([H])[H])C1(C([H])([H])[H])C2=C([H])C2([H])C1([H])OC1([H])C([H])(O[H])C([H])(O[H])C3(O[H])C([H])(O[H])C12C([H])(OC(=O)C([H])([H])[H])C([H])([H])C3(C([H])([H])[H])C([H])([H])[H]

$$$$
80:0:0
     RDKit          3D

 34 36  0  0  1  0  0  0  0  0999 V2000
   -1.6367   -9.2372    2.3031 C   0  0  0  0  0  0  0  0  0  0  0  0
   -0.1583   -9.2566    2.4937 N   0  0  2  0  0  0  0  0  0  0  0  0
    0.3604   -9.7240    3.7845 C   0  0  1  0  0  0  0  0  0  0  0  0
    1.8827   -9.5647    3.5908 C   0  0  0  0  0  0  0  0  0  0  0  0
    2.0185   -8.4001    2.5884 C   0  0  0  0  0  0  0  0  0  0  0  0
    0.5633   -7.9966    2.2692 C   0  0  2  0  0  0  0  0  0  0  0  0
    0.0603   -6.9107    3.2480 C   0  0  0  0  0  0  0  0  0  0  0  0
    0.2467   -7.3261    4.7368 C   0  0  1  0  0  0  0  0  0  0  0  0
   -0.5433   -6.5230    5.6210 O   0  0  0  0  0  0  0  0  0  0  0  0
   -0.1809   -5.2198    5.8964 C   0  0  0  0  0  0  0  0  0  0  0  0
   -0.8768   -4.5067    6.9095 C   0  0  0  0  0  0  0  0  0  0  0  0
   -0.6012   -3.2138    7.2033 N   0  0  0  0  0  0  0  0  0  0  0  0
    0.3764   -2.6311    6.4705 C   0  0  0  0  0  0  0  0  0  0  0  0
    1.0715   -3.3359    5.4567 C   0  0  0  0  0  0  0  0  0  0  0  0
    0.8030   -4.6317    5.1789 N   0  0  0  0  0  0  0  0  0  0  0  0
   -0.1463   -8.8128    4.9383 C   0  0  0  0  0  0  0  0  0  0  0  0
   -2.1891   -8.5839    2.9895 H   0  0  0  0  0  0  0  0  0  0  0  0
   -2.0378  -10.2355    2.4333 H   0  0  0  0  0  0  0  0  0  0  0  0
   -1.8822   -8.9279    1.2921 H   0  0  0  0  0  0  0  0  0  0  0  0
    0.0853  -10.7740    3.9593 H   0  0  0  0  0  0  0  0  0  0  0  0
    2.4093   -9.3881    4.5413 H   0  0  0  0  0  0  0  0  0  0  0  0
    2.3015  -10.4710    3.1567 H   0  0  0  0  0  0  0  0  0  0  0  0
    2.6175   -7.5616    2.9777 H   0  0  0  0  0  0  0  0  0  0  0  0
    2.5086   -8.7515    1.6832 H   0  0  0  0  0  0  0  0  0  0  0  0
    0.4573   -7.6573    1.2366 H   0  0  0  0  0  0  0  0  0  0  0  0
    0.6090   -5.9942    3.0256 H   0  0  0  0  0  0  0  0  0  0  0  0
   -0.9880   -6.6740    3.0740 H   0  0  0  0  0  0  0  0  0  0  0  0
    1.3093   -7.2344    5.0188 H   0  0  0  0  0  0  0  0  0  0  0  0
   -1.6555   -4.9830    7.4743 H   0  0  0  0  0  0  0  0  0  0  0  0
    0.6083   -1.6014    6.6947 H   0  0  0  0  0  0  0  0  0  0  0  0
    1.8365   -2.8484    4.8753 H   0  0  0  0  0  0  0  0  0  0  0  0
   -1.2238   -8.9093    5.0285 H   0  0  0  0  0  0  0  0  0  0  0  0
    0.2421   -9.1841    5.8938 H   0  0  0  0  0  0  0  0  0  0  0  0
    0.2343   -9.8785    1.7928 H   0  0  0  0  0  0  0  0  0  0  0  0
  1  2  1  0
  1 17  1  0
  1 18  1  0
  1 19  1  0
  2  6  1  0
  2  3  1  0
  2 34  1  6
  3 16  1  0
  3  4  1  0
  3 20  1  1
  4  5  1  0
  4 21  1  0
  4 22  1  0
  5  6  1  0
  5 23  1  0
  5 24  1  0
  6  7  1  0
  6 25  1  6
  7  8  1  0
  7 26  1  0
  7 27  1  0
  8  9  1  0
  8 16  1  0
  8 28  1  1
  9 10  1  0
 10 15  1  0
 10 11  2  0
 11 12  1  0
 11 29  1  0
 12 13  2  0
 13 14  1  0
 13 30  1  0
 14 15  2  0
 14 31  1  0
 16 32  1  0
 16 33  1  0
M  CHG  1   2   1
M  END
>  <i_m_ct_stereo_status>  (282) 
1

>  <s_m_source_file>  (282) 
/var/tmp/pbs.5076255.sched01/tmpi2d1958y/88otlks1nw.sdf

>  <i_m_source_file_index>  (282) 
42

>  <i_lp_mmshare_version>  (282) 
48012

>  <i_f3d_flags>  (282) 
0

>  <s_epik_input>  (282) 
W0NIM11OKFtDQEBIXTEyKVtDQEhdKFtDSDJdW0NIMl0xKVtDSDJdW0NASF0oW0NIMl0yKU9jM1tjSF1uW2NIXVtjSF1uMw==

>  <s_epik_cmdline>  (282) 
J2VwaWtfcHl0aG9uJywgJy1waHQnLCAnMi4wJywgJy1waCcsICc3LjAnLCAnLXRuJywgJzgnLCAnLW1hJywgJzIwMCcsICctaW1hZScsICc8aW5maWxlLm1hZT4nLCAnLW9tYWUnLCAnPG91dGZpbGUubWFlPic=

>  <r_lp_tautomer_probability>  (282) 
1

>  <r_epik_Ionization_Penalty>  (282) 
0.00349812

>  <r_epik_Ionization_Penalty_Charging>  (282) 
0.00349806

>  <r_epik_Ionization_Penalty_Neutral>  (282) 
6.09961e-08

>  <r_epik_State_Penalty>  (282) 
0.00248184

>  <r_epik_Charging_Adjusted_Penalty>  (282) 
0.0059799

>  <i_epik_Tot_Q>  (282) 
1

>  <i_epik_Tot_abs_Q>  (282) 
1

>  <s_lp_Force_Field>  (282) 
OPLS3e

>  <r_lp_Energy>  (282) 
42.4752

>  <b_lp_Chiralities_Consistent>  (282) 
1

>  <s_lp_Variant>  (282) 
80:0-1

>  <s_i_glide_gridfile>  (282) 
pfpi4k_grid

>  <i_i_glide_lignum>  (282) 
42

>  <i_i_glide_rotatable_bonds>  (282) 
2

>  <r_i_docking_score>  (282) 
-2.88239

>  <r_i_glide_ligand_efficiency>  (282) 
-0.180149

>  <r_i_glide_ligand_efficiency_sa>  (282) 
-0.453948

>  <r_i_glide_ligand_efficiency_ln>  (282) 
-0.764035

>  <r_i_glide_gscore>  (282) 
-2.88239

>  <r_i_glide_lipo>  (282) 
-0.289071

>  <r_i_glide_hbond>  (282) 
0

>  <r_i_glide_metal>  (282) 
-0

>  <r_i_glide_rewards>  (282) 
-1.90711

>  <r_i_glide_evdw>  (282) 
-14.4906

>  <r_i_glide_ecoul>  (282) 
-4.28781

>  <r_i_glide_erotb>  (282) 
0.694473

>  <r_i_glide_esite>  (282) 
-0.012985

>  <r_i_glide_emodel>  (282) 
-24.0713

>  <r_i_glide_energy>  (282) 
-18.7784

>  <r_i_glide_einternal>  (282) 
0.182539

>  <r_i_glide_intrahb_reward>  (282) 
-0

>  <i_i_glide_confnum>  (282) 
1

>  <i_i_glide_posenum>  (282) 
13

>  <r_i_glide_eff_state_penalty>  (282) 
0

>  <ligand_id>  (282) 
80

>  <original_smiles>  (282) 
CN1C2CCC1CC(Oc1cnccn1)C2

>  <smiles>  (282) 
[H]c1nc([H])c(OC2([H])C([H])([H])C3([H])C([H])([H])C([H])([H])C([H])(C2([H])[H])[N+]3([H])C([H])([H])[H])nc1[H]

$$$$
80:0:1
     RDKit          3D

 34 36  0  0  1  0  0  0  0  0999 V2000
    3.0760   -9.2782    1.7569 C   0  0  0  0  0  0  0  0  0  0  0  0
    2.4499  -10.2600    2.6724 N   0  0  2  0  0  0  0  0  0  0  0  0
    0.9765  -10.3569    2.6763 C   0  0  1  0  0  0  0  0  0  0  0  0
    0.7452  -11.4496    3.7276 C   0  0  0  0  0  0  0  0  0  0  0  0
    1.9371  -11.3240    4.6887 C   0  0  0  0  0  0  0  0  0  0  0  0
    2.7782  -10.1759    4.1095 C   0  0  2  0  0  0  0  0  0  0  0  0
    2.3365   -8.8039    4.6871 C   0  0  0  0  0  0  0  0  0  0  0  0
    0.8151   -8.5607    4.5102 C   0  0  1  0  0  0  0  0  0  0  0  0
    0.4810   -7.1812    4.6755 O   0  0  0  0  0  0  0  0  0  0  0  0
    0.3884   -6.6271    5.9422 C   0  0  0  0  0  0  0  0  0  0  0  0
    0.0073   -5.2751    6.0721 C   0  0  0  0  0  0  0  0  0  0  0  0
   -0.1296   -4.6748    7.2790 N   0  0  0  0  0  0  0  0  0  0  0  0
    0.1412   -5.4325    8.3622 C   0  0  0  0  0  0  0  0  0  0  0  0
    0.5323   -6.7846    8.2423 C   0  0  0  0  0  0  0  0  0  0  0  0
    0.6483   -7.3874    7.0375 N   0  0  0  0  0  0  0  0  0  0  0  0
    0.3406   -9.0057    3.1039 C   0  0  0  0  0  0  0  0  0  0  0  0
    2.8086   -8.2458    1.9737 H   0  0  0  0  0  0  0  0  0  0  0  0
    2.7825   -9.4786    0.7272 H   0  0  0  0  0  0  0  0  0  0  0  0
    4.1610   -9.3507    1.8099 H   0  0  0  0  0  0  0  0  0  0  0  0
    0.5922  -10.6524    1.6978 H   0  0  0  0  0  0  0  0  0  0  0  0
   -0.1827  -11.3086    4.2589 H   0  0  0  0  0  0  0  0  0  0  0  0
    0.7107  -12.4314    3.2614 H   0  0  0  0  0  0  0  0  0  0  0  0
    1.6141  -11.1147    5.7059 H   0  0  0  0  0  0  0  0  0  0  0  0
    2.4957  -12.2598    4.7111 H   0  0  0  0  0  0  0  0  0  0  0  0
    3.8401  -10.3457    4.2783 H   0  0  0  0  0  0  0  0  0  0  0  0
    2.6003   -8.7559    5.7429 H   0  0  0  0  0  0  0  0  0  0  0  0
    2.8979   -8.0007    4.2163 H   0  0  0  0  0  0  0  0  0  0  0  0
    0.2565   -9.1599    5.2309 H   0  0  0  0  0  0  0  0  0  0  0  0
   -0.1984   -4.6652    5.2043 H   0  0  0  0  0  0  0  0  0  0  0  0
    0.0464   -4.9637    9.3314 H   0  0  0  0  0  0  0  0  0  0  0  0
    0.7426   -7.3827    9.1151 H   0  0  0  0  0  0  0  0  0  0  0  0
    0.5702   -8.2397    2.3640 H   0  0  0  0  0  0  0  0  0  0  0  0
   -0.7478   -9.0949    3.0972 H   0  0  0  0  0  0  0  0  0  0  0  0
    2.7717  -11.1751    2.3773 H   0  0  0  0  0  0  0  0  0  0  0  0
  1  2  1  0
  1 17  1  0
  1 18  1  0
  1 19  1  0
  2  6  1  0
  2  3  1  0
  2 34  1  6
  3 16  1  0
  3  4  1  0
  3 20  1  6
  4  5  1  0
  4 21  1  0
  4 22  1  0
  5  6  1  0
  5 23  1  0
  5 24  1  0
  6  7  1  0
  6 25  1  6
  7  8  1  0
  7 26  1  0
  7 27  1  0
  8  9  1  0
  8 16  1  0
  8 28  1  1
  9 10  1  0
 10 15  1  0
 10 11  2  0
 11 12  1  0
 11 29  1  0
 12 13  2  0
 13 14  1  0
 13 30  1  0
 14 15  2  0
 14 31  1  0
 16 32  1  0
 16 33  1  0
M  CHG  1   2   1
M  END
>  <i_m_ct_stereo_status>  (283) 
1

>  <s_m_source_file>  (283) 
/var/tmp/pbs.5076255.sched01/tmpi2d1958y/88otlks1nw.sdf

>  <i_m_source_file_index>  (283) 
42

>  <i_lp_mmshare_version>  (283) 
48012

>  <i_f3d_flags>  (283) 
0

>  <s_epik_input>  (283) 
W0NIM11OKFtDQEBIXTEyKVtDQEhdKFtDSDJdW0NIMl0xKVtDSDJdW0NASF0oW0NIMl0yKU9jM1tjSF1uW2NIXVtjSF1uMw==

>  <s_epik_cmdline>  (283) 
J2VwaWtfcHl0aG9uJywgJy1waHQnLCAnMi4wJywgJy1waCcsICc3LjAnLCAnLXRuJywgJzgnLCAnLW1hJywgJzIwMCcsICctaW1hZScsICc8aW5maWxlLm1hZT4nLCAnLW9tYWUnLCAnPG91dGZpbGUubWFlPic=

>  <r_lp_tautomer_probability>  (283) 
1

>  <r_epik_Ionization_Penalty>  (283) 
0.00349812

>  <r_epik_Ionization_Penalty_Charging>  (283) 
0.00349806

>  <r_epik_Ionization_Penalty_Neutral>  (283) 
6.09961e-08

>  <r_epik_State_Penalty>  (283) 
0.00248184

>  <r_epik_Charging_Adjusted_Penalty>  (283) 
0.0059799

>  <i_epik_Tot_Q>  (283) 
1

>  <i_epik_Tot_abs_Q>  (283) 
1

>  <s_lp_Force_Field>  (283) 
OPLS3e

>  <r_lp_Energy>  (283) 
42.4752

>  <b_lp_Chiralities_Consistent>  (283) 
1

>  <s_lp_Variant>  (283) 
80:0-1

>  <s_i_glide_gridfile>  (283) 
pfpi4k_grid

>  <i_i_glide_lignum>  (283) 
42

>  <i_i_glide_rotatable_bonds>  (283) 
2

>  <r_i_docking_score>  (283) 
-2.70164

>  <r_i_glide_ligand_efficiency>  (283) 
-0.168852

>  <r_i_glide_ligand_efficiency_sa>  (283) 
-0.425481

>  <r_i_glide_ligand_efficiency_ln>  (283) 
-0.716123

>  <r_i_glide_gscore>  (283) 
-2.70164

>  <r_i_glide_lipo>  (283) 
-0.265653

>  <r_i_glide_hbond>  (283) 
0

>  <r_i_glide_metal>  (283) 
-0

>  <r_i_glide_rewards>  (283) 
-1.90711

>  <r_i_glide_evdw>  (283) 
-14.0576

>  <r_i_glide_ecoul>  (283) 
-3.45729

>  <r_i_glide_erotb>  (283) 
0.694473

>  <r_i_glide_esite>  (283) 
-0.00187445

>  <r_i_glide_emodel>  (283) 
-22.6459

>  <r_i_glide_energy>  (283) 
-17.5149

>  <r_i_glide_einternal>  (283) 
0.0356626

>  <r_i_glide_intrahb_reward>  (283) 
-0

>  <i_i_glide_confnum>  (283) 
1

>  <i_i_glide_posenum>  (283) 
1

>  <r_i_glide_eff_state_penalty>  (283) 
0

>  <ligand_id>  (283) 
80

>  <original_smiles>  (283) 
CN1C2CCC1CC(Oc1cnccn1)C2

>  <smiles>  (283) 
[H]c1nc([H])c(OC2([H])C([H])([H])C3([H])C([H])([H])C([H])([H])C([H])(C2([H])[H])[N+]3([H])C([H])([H])[H])nc1[H]

$$$$
80:0:2
     RDKit          3D

 34 36  0  0  1  0  0  0  0  0999 V2000
   -0.9792   -8.2697    1.7569 C   0  0  0  0  0  0  0  0  0  0  0  0
    0.2189   -8.7544    2.4809 N   0  0  2  0  0  0  0  0  0  0  0  0
    0.0078   -9.4514    3.7634 C   0  0  1  0  0  0  0  0  0  0  0  0
    1.4513   -9.7634    4.1987 C   0  0  0  0  0  0  0  0  0  0  0  0
    2.2951   -8.6357    3.5606 C   0  0  0  0  0  0  0  0  0  0  0  0
    1.2703   -7.7723    2.8024 C   0  0  2  0  0  0  0  0  0  0  0  0
    0.7021   -6.6481    3.7081 C   0  0  0  0  0  0  0  0  0  0  0  0
    0.1236   -7.2121    5.0314 C   0  0  1  0  0  0  0  0  0  0  0  0
   -0.7259   -6.2563    5.6700 O   0  0  0  0  0  0  0  0  0  0  0  0
   -0.1865   -5.2413    6.4338 C   0  0  0  0  0  0  0  0  0  0  0  0
   -1.0462   -4.4656    7.2446 C   0  0  0  0  0  0  0  0  0  0  0  0
   -0.5919   -3.4541    8.0158 N   0  0  0  0  0  0  0  0  0  0  0  0
    0.7372   -3.2083    7.9708 C   0  0  0  0  0  0  0  0  0  0  0  0
    1.6033   -3.9768    7.1618 C   0  0  0  0  0  0  0  0  0  0  0  0
    1.1494   -4.9958    6.3950 N   0  0  0  0  0  0  0  0  0  0  0  0
   -0.6941   -8.5087    4.7788 C   0  0  0  0  0  0  0  0  0  0  0  0
   -1.5514   -7.5205    2.2971 H   0  0  0  0  0  0  0  0  0  0  0  0
   -1.6501   -9.1019    1.5445 H   0  0  0  0  0  0  0  0  0  0  0  0
   -0.6785   -7.8366    0.8041 H   0  0  0  0  0  0  0  0  0  0  0  0
   -0.5714  -10.3628    3.6151 H   0  0  0  0  0  0  0  0  0  0  0  0
    1.5537   -9.8091    5.2827 H   0  0  0  0  0  0  0  0  0  0  0  0
    1.7622  -10.7328    3.8066 H   0  0  0  0  0  0  0  0  0  0  0  0
    2.8546   -8.0637    4.3001 H   0  0  0  0  0  0  0  0  0  0  0  0
    3.0199   -9.0602    2.8650 H   0  0  0  0  0  0  0  0  0  0  0  0
    1.6974   -7.3501    1.8934 H   0  0  0  0  0  0  0  0  0  0  0  0
    1.4856   -5.9212    3.9213 H   0  0  0  0  0  0  0  0  0  0  0  0
   -0.0685   -6.0891    3.1822 H   0  0  0  0  0  0  0  0  0  0  0  0
    0.9393   -7.4786    5.7046 H   0  0  0  0  0  0  0  0  0  0  0  0
   -2.1084   -4.6642    7.2781 H   0  0  0  0  0  0  0  0  0  0  0  0
    1.1108   -2.3964    8.5801 H   0  0  0  0  0  0  0  0  0  0  0  0
    2.6637   -3.7667    7.1331 H   0  0  0  0  0  0  0  0  0  0  0  0
   -1.6963   -8.2654    4.4256 H   0  0  0  0  0  0  0  0  0  0  0  0
   -0.8489   -9.0410    5.7185 H   0  0  0  0  0  0  0  0  0  0  0  0
    0.6510   -9.4376    1.8738 H   0  0  0  0  0  0  0  0  0  0  0  0
  1  2  1  0
  1 17  1  0
  1 18  1  0
  1 19  1  0
  2  6  1  0
  2  3  1  0
  2 34  1  6
  3 16  1  0
  3  4  1  0
  3 20  1  6
  4  5  1  0
  4 21  1  0
  4 22  1  0
  5  6  1  0
  5 23  1  0
  5 24  1  0
  6  7  1  0
  6 25  1  6
  7  8  1  0
  7 26  1  0
  7 27  1  0
  8  9  1  0
  8 16  1  0
  8 28  1  1
  9 10  1  0
 10 15  1  0
 10 11  2  0
 11 12  1  0
 11 29  1  0
 12 13  2  0
 13 14  1  0
 13 30  1  0
 14 15  2  0
 14 31  1  0
 16 32  1  0
 16 33  1  0
M  CHG  1   2   1
M  END
>  <i_m_ct_stereo_status>  (284) 
1

>  <s_m_source_file>  (284) 
/var/tmp/pbs.5076255.sched01/tmpi2d1958y/88otlks1nw.sdf

>  <i_m_source_file_index>  (284) 
42

>  <i_lp_mmshare_version>  (284) 
48012

>  <i_f3d_flags>  (284) 
0

>  <s_epik_input>  (284) 
W0NIM11OKFtDQEBIXTEyKVtDQEhdKFtDSDJdW0NIMl0xKVtDSDJdW0NASF0oW0NIMl0yKU9jM1tjSF1uW2NIXVtjSF1uMw==

>  <s_epik_cmdline>  (284) 
J2VwaWtfcHl0aG9uJywgJy1waHQnLCAnMi4wJywgJy1waCcsICc3LjAnLCAnLXRuJywgJzgnLCAnLW1hJywgJzIwMCcsICctaW1hZScsICc8aW5maWxlLm1hZT4nLCAnLW9tYWUnLCAnPG91dGZpbGUubWFlPic=

>  <r_lp_tautomer_probability>  (284) 
1

>  <r_epik_Ionization_Penalty>  (284) 
0.00349812

>  <r_epik_Ionization_Penalty_Charging>  (284) 
0.00349806

>  <r_epik_Ionization_Penalty_Neutral>  (284) 
6.09961e-08

>  <r_epik_State_Penalty>  (284) 
0.00248184

>  <r_epik_Charging_Adjusted_Penalty>  (284) 
0.0059799

>  <i_epik_Tot_Q>  (284) 
1

>  <i_epik_Tot_abs_Q>  (284) 
1

>  <s_lp_Force_Field>  (284) 
OPLS3e

>  <r_lp_Energy>  (284) 
42.4752

>  <b_lp_Chiralities_Consistent>  (284) 
1

>  <s_lp_Variant>  (284) 
80:0-1

>  <s_i_glide_gridfile>  (284) 
pfpi4k_grid

>  <i_i_glide_lignum>  (284) 
42

>  <i_i_glide_rotatable_bonds>  (284) 
2

>  <r_i_docking_score>  (284) 
-2.66999

>  <r_i_glide_ligand_efficiency>  (284) 
-0.166875

>  <r_i_glide_ligand_efficiency_sa>  (284) 
-0.420498

>  <r_i_glide_ligand_efficiency_ln>  (284) 
-0.707735

>  <r_i_glide_gscore>  (284) 
-2.66999

>  <r_i_glide_lipo>  (284) 
-0.0225025

>  <r_i_glide_hbond>  (284) 
-0.0534073

>  <r_i_glide_metal>  (284) 
-0

>  <r_i_glide_rewards>  (284) 
-1.90711

>  <r_i_glide_evdw>  (284) 
-13.3667

>  <r_i_glide_ecoul>  (284) 
-4.51271

>  <r_i_glide_erotb>  (284) 
0.694473

>  <r_i_glide_esite>  (284) 
-0.0362079

>  <r_i_glide_emodel>  (284) 
-22.8639

>  <r_i_glide_energy>  (284) 
-17.8794

>  <r_i_glide_einternal>  (284) 
0.186725

>  <r_i_glide_intrahb_reward>  (284) 
-0

>  <i_i_glide_confnum>  (284) 
1

>  <i_i_glide_posenum>  (284) 
22

>  <r_i_glide_eff_state_penalty>  (284) 
0

>  <ligand_id>  (284) 
80

>  <original_smiles>  (284) 
CN1C2CCC1CC(Oc1cnccn1)C2

>  <smiles>  (284) 
[H]c1nc([H])c(OC2([H])C([H])([H])C3([H])C([H])([H])C([H])([H])C([H])(C2([H])[H])[N+]3([H])C([H])([H])[H])nc1[H]

$$$$
80:1:0
     RDKit          3D

 34 36  0  0  1  0  0  0  0  0999 V2000
    3.2688   -0.4370   -3.4906 C   0  0  0  0  0  0  0  0  0  0  0  0
    3.0206   -1.5008   -2.4760 N   0  0  1  0  0  0  0  0  0  0  0  0
    2.5788   -2.7907   -3.0483 C   0  0  1  0  0  0  0  0  0  0  0  0
    3.8936   -3.4227   -3.5658 C   0  0  0  0  0  0  0  0  0  0  0  0
    4.9843   -2.8361   -2.6520 C   0  0  0  0  0  0  0  0  0  0  0  0
    4.2157   -1.8899   -1.7048 C   0  0  2  0  0  0  0  0  0  0  0  0
    3.7459   -2.6143   -0.4186 C   0  0  0  0  0  0  0  0  0  0  0  0
    2.9229   -3.8807   -0.7589 C   0  0  1  0  0  0  0  0  0  0  0  0
    2.2158   -4.3132    0.3939 O   0  0  0  0  0  0  0  0  0  0  0  0
    2.3391   -5.6226    0.7972 C   0  0  0  0  0  0  0  0  0  0  0  0
    3.5776   -6.3054    0.8576 C   0  0  0  0  0  0  0  0  0  0  0  0
    3.6690   -7.5837    1.2868 N   0  0  0  0  0  0  0  0  0  0  0  0
    2.5224   -8.1775    1.6824 C   0  0  0  0  0  0  0  0  0  0  0  0
    1.2812   -7.5006    1.6472 C   0  0  0  0  0  0  0  0  0  0  0  0
    1.1880   -6.2227    1.1996 N   0  0  0  0  0  0  0  0  0  0  0  0
    1.9109   -3.6029   -1.9052 C   0  0  0  0  0  0  0  0  0  0  0  0
    4.0302   -0.7260   -4.2173 H   0  0  0  0  0  0  0  0  0  0  0  0
    3.6229    0.4854   -3.0330 H   0  0  0  0  0  0  0  0  0  0  0  0
    2.3702   -0.1992   -4.0578 H   0  0  0  0  0  0  0  0  0  0  0  0
    1.8534   -2.6470   -3.8476 H   0  0  0  0  0  0  0  0  0  0  0  0
    3.9078   -4.5071   -3.5707 H   0  0  0  0  0  0  0  0  0  0  0  0
    4.0652   -3.1239   -4.5975 H   0  0  0  0  0  0  0  0  0  0  0  0
    5.5531   -3.6028   -2.1244 H   0  0  0  0  0  0  0  0  0  0  0  0
    5.6942   -2.2684   -3.2465 H   0  0  0  0  0  0  0  0  0  0  0  0
    4.8128   -1.0216   -1.4273 H   0  0  0  0  0  0  0  0  0  0  0  0
    4.5962   -2.8821    0.2108 H   0  0  0  0  0  0  0  0  0  0  0  0
    3.1411   -1.9264    0.1776 H   0  0  0  0  0  0  0  0  0  0  0  0
    3.6177   -4.6421   -1.1096 H   0  0  0  0  0  0  0  0  0  0  0  0
    4.5041   -5.8258    0.5810 H   0  0  0  0  0  0  0  0  0  0  0  0
    2.5799   -9.2013    2.0243 H   0  0  0  0  0  0  0  0  0  0  0  0
    0.3668   -7.9799    1.9668 H   0  0  0  0  0  0  0  0  0  0  0  0
    1.0520   -3.0543   -1.5210 H   0  0  0  0  0  0  0  0  0  0  0  0
    1.4614   -4.5282   -2.2733 H   0  0  0  0  0  0  0  0  0  0  0  0
    2.2973   -1.1853   -1.8238 H   0  0  0  0  0  0  0  0  0  0  0  0
  1  2  1  0
  1 17  1  0
  1 18  1  0
  1 19  1  0
  2  6  1  0
  2  3  1  0
  2 34  1  1
  3 16  1  0
  3  4  1  0
  3 20  1  6
  4  5  1  0
  4 21  1  0
  4 22  1  0
  5  6  1  0
  5 23  1  0
  5 24  1  0
  6  7  1  0
  6 25  1  1
  7  8  1  0
  7 26  1  0
  7 27  1  0
  8  9  1  0
  8 16  1  0
  8 28  1  6
  9 10  1  0
 10 15  1  0
 10 11  2  0
 11 12  1  0
 11 29  1  0
 12 13  2  0
 13 14  1  0
 13 30  1  0
 14 15  2  0
 14 31  1  0
 16 32  1  0
 16 33  1  0
M  CHG  1   2   1
M  END
>  <i_m_ct_stereo_status>  (285) 
1

>  <s_m_source_file>  (285) 
/var/tmp/pbs.5076255.sched01/tmpi2d1958y/88otlks1nw.sdf

>  <i_m_source_file_index>  (285) 
43

>  <i_lp_mmshare_version>  (285) 
48012

>  <i_f3d_flags>  (285) 
0

>  <s_epik_input>  (285) 
W0NIM11OKFtDQEBIXTEyKVtDQEhdKFtDSDJdW0NIMl0xKVtDSDJdW0NASF0oW0NIMl0yKU9jM1tjSF1uW2NIXVtjSF1uMw==

>  <s_epik_cmdline>  (285) 
J2VwaWtfcHl0aG9uJywgJy1waHQnLCAnMi4wJywgJy1waCcsICc3LjAnLCAnLXRuJywgJzgnLCAnLW1hJywgJzIwMCcsICctaW1hZScsICc8aW5maWxlLm1hZT4nLCAnLW9tYWUnLCAnPG91dGZpbGUubWFlPic=

>  <r_lp_tautomer_probability>  (285) 
1

>  <r_epik_Ionization_Penalty>  (285) 
0.00349812

>  <r_epik_Ionization_Penalty_Charging>  (285) 
0.00349806

>  <r_epik_Ionization_Penalty_Neutral>  (285) 
6.09961e-08

>  <r_epik_State_Penalty>  (285) 
0.00248184

>  <r_epik_Charging_Adjusted_Penalty>  (285) 
0.0059799

>  <i_epik_Tot_Q>  (285) 
1

>  <i_epik_Tot_abs_Q>  (285) 
1

>  <s_lp_Force_Field>  (285) 
OPLS3e

>  <r_lp_Energy>  (285) 
40.2794

>  <b_lp_Chiralities_Consistent>  (285) 
1

>  <s_lp_Variant>  (285) 
80:0-2

>  <s_i_glide_gridfile>  (285) 
pfpi4k_grid

>  <i_i_glide_lignum>  (285) 
43

>  <i_i_glide_rotatable_bonds>  (285) 
2

>  <r_i_docking_score>  (285) 
-4.37518

>  <r_i_glide_ligand_efficiency>  (285) 
-0.273448

>  <r_i_glide_ligand_efficiency_sa>  (285) 
-0.689047

>  <r_i_glide_ligand_efficiency_ln>  (285) 
-1.15973

>  <r_i_glide_gscore>  (285) 
-4.37518

>  <r_i_glide_lipo>  (285) 
-0.715004

>  <r_i_glide_hbond>  (285) 
-0.346615

>  <r_i_glide_metal>  (285) 
-0

>  <r_i_glide_rewards>  (285) 
-1.90711

>  <r_i_glide_evdw>  (285) 
-17.3569

>  <r_i_glide_ecoul>  (285) 
-7.71687

>  <r_i_glide_erotb>  (285) 
0.694473

>  <r_i_glide_esite>  (285) 
-0.0755431

>  <r_i_glide_emodel>  (285) 
-30.1875

>  <r_i_glide_energy>  (285) 
-25.0738

>  <r_i_glide_einternal>  (285) 
6.95326

>  <r_i_glide_intrahb_reward>  (285) 
-0

>  <i_i_glide_confnum>  (285) 
3

>  <i_i_glide_posenum>  (285) 
21

>  <r_i_glide_eff_state_penalty>  (285) 
0

>  <ligand_id>  (285) 
80

>  <original_smiles>  (285) 
CN1C2CCC1CC(Oc1cnccn1)C2

>  <smiles>  (285) 
[H]c1nc([H])c(OC2([H])C([H])([H])C3([H])C([H])([H])C([H])([H])C([H])(C2([H])[H])[N+]3([H])C([H])([H])[H])nc1[H]

$$$$
80:1:1
     RDKit          3D

 34 36  0  0  1  0  0  0  0  0999 V2000
    3.1036   -1.0861   -3.3257 C   0  0  0  0  0  0  0  0  0  0  0  0
    3.0183   -1.7522   -1.9975 N   0  0  1  0  0  0  0  0  0  0  0  0
    3.0480   -3.2224   -2.0633 C   0  0  1  0  0  0  0  0  0  0  0  0
    4.5393   -3.5673   -2.2266 C   0  0  0  0  0  0  0  0  0  0  0  0
    5.2781   -2.3775   -1.5824 C   0  0  0  0  0  0  0  0  0  0  0  0
    4.1473   -1.4484   -1.0984 C   0  0  2  0  0  0  0  0  0  0  0  0
    3.7107   -1.7913    0.3499 C   0  0  0  0  0  0  0  0  0  0  0  0
    3.3166   -3.2878    0.4888 C   0  0  1  0  0  0  0  0  0  0  0  0
    2.6094   -3.4438    1.7192 O   0  0  0  0  0  0  0  0  0  0  0  0
    2.3308   -4.7051    2.2122 C   0  0  0  0  0  0  0  0  0  0  0  0
    1.6098   -4.8208    3.4236 C   0  0  0  0  0  0  0  0  0  0  0  0
    1.2604   -6.0200    3.9435 N   0  0  0  0  0  0  0  0  0  0  0  0
    1.6511   -7.1120    3.2514 C   0  0  0  0  0  0  0  0  0  0  0  0
    2.3701   -7.0079    2.0390 C   0  0  0  0  0  0  0  0  0  0  0  0
    2.7152   -5.8069    1.5218 N   0  0  0  0  0  0  0  0  0  0  0  0
    2.4739   -3.7449   -0.7334 C   0  0  0  0  0  0  0  0  0  0  0  0
    4.0152   -1.3485   -3.8634 H   0  0  0  0  0  0  0  0  0  0  0  0
    3.0952    0.0013   -3.2320 H   0  0  0  0  0  0  0  0  0  0  0  0
    2.2736   -1.3799   -3.9689 H   0  0  0  0  0  0  0  0  0  0  0  0
    2.4382   -3.5980   -2.8837 H   0  0  0  0  0  0  0  0  0  0  0  0
    4.8008   -4.5261   -1.7753 H   0  0  0  0  0  0  0  0  0  0  0  0
    4.7893   -3.6379   -3.2851 H   0  0  0  0  0  0  0  0  0  0  0  0
    5.9582   -2.6814   -0.7825 H   0  0  0  0  0  0  0  0  0  0  0  0
    5.8819   -1.8696   -2.3320 H   0  0  0  0  0  0  0  0  0  0  0  0
    4.4359   -0.3961   -1.1497 H   0  0  0  0  0  0  0  0  0  0  0  0
    4.5052   -1.5372    1.0591 H   0  0  0  0  0  0  0  0  0  0  0  0
    2.8635   -1.1569    0.6125 H   0  0  0  0  0  0  0  0  0  0  0  0
    4.2419   -3.8666    0.5382 H   0  0  0  0  0  0  0  0  0  0  0  0
    1.2990   -3.9412    3.9670 H   0  0  0  0  0  0  0  0  0  0  0  0
    1.3966   -8.0775    3.6675 H   0  0  0  0  0  0  0  0  0  0  0  0
    2.6604   -7.8875    1.4852 H   0  0  0  0  0  0  0  0  0  0  0  0
    1.4523   -3.3871   -0.6496 H   0  0  0  0  0  0  0  0  0  0  0  0
    2.4087   -4.8297   -0.7716 H   0  0  0  0  0  0  0  0  0  0  0  0
    2.1391   -1.4735   -1.5421 H   0  0  0  0  0  0  0  0  0  0  0  0
  1  2  1  0
  1 17  1  0
  1 18  1  0
  1 19  1  0
  2  6  1  0
  2  3  1  0
  2 34  1  1
  3 16  1  0
  3  4  1  0
  3 20  1  6
  4  5  1  0
  4 21  1  0
  4 22  1  0
  5  6  1  0
  5 23  1  0
  5 24  1  0
  6  7  1  0
  6 25  1  1
  7  8  1  0
  7 26  1  0
  7 27  1  0
  8  9  1  0
  8 16  1  0
  8 28  1  1
  9 10  1  0
 10 15  1  0
 10 11  2  0
 11 12  1  0
 11 29  1  0
 12 13  2  0
 13 14  1  0
 13 30  1  0
 14 15  2  0
 14 31  1  0
 16 32  1  0
 16 33  1  0
M  CHG  1   2   1
M  END
>  <i_m_ct_stereo_status>  (286) 
1

>  <s_m_source_file>  (286) 
/var/tmp/pbs.5076255.sched01/tmpi2d1958y/88otlks1nw.sdf

>  <i_m_source_file_index>  (286) 
43

>  <i_lp_mmshare_version>  (286) 
48012

>  <i_f3d_flags>  (286) 
0

>  <s_epik_input>  (286) 
W0NIM11OKFtDQEBIXTEyKVtDQEhdKFtDSDJdW0NIMl0xKVtDSDJdW0NASF0oW0NIMl0yKU9jM1tjSF1uW2NIXVtjSF1uMw==

>  <s_epik_cmdline>  (286) 
J2VwaWtfcHl0aG9uJywgJy1waHQnLCAnMi4wJywgJy1waCcsICc3LjAnLCAnLXRuJywgJzgnLCAnLW1hJywgJzIwMCcsICctaW1hZScsICc8aW5maWxlLm1hZT4nLCAnLW9tYWUnLCAnPG91dGZpbGUubWFlPic=

>  <r_lp_tautomer_probability>  (286) 
1

>  <r_epik_Ionization_Penalty>  (286) 
0.00349812

>  <r_epik_Ionization_Penalty_Charging>  (286) 
0.00349806

>  <r_epik_Ionization_Penalty_Neutral>  (286) 
6.09961e-08

>  <r_epik_State_Penalty>  (286) 
0.00248184

>  <r_epik_Charging_Adjusted_Penalty>  (286) 
0.0059799

>  <i_epik_Tot_Q>  (286) 
1

>  <i_epik_Tot_abs_Q>  (286) 
1

>  <s_lp_Force_Field>  (286) 
OPLS3e

>  <r_lp_Energy>  (286) 
40.2794

>  <b_lp_Chiralities_Consistent>  (286) 
1

>  <s_lp_Variant>  (286) 
80:0-2

>  <s_i_glide_gridfile>  (286) 
pfpi4k_grid

>  <i_i_glide_lignum>  (286) 
43

>  <i_i_glide_rotatable_bonds>  (286) 
2

>  <r_i_docking_score>  (286) 
-3.3165

>  <r_i_glide_ligand_efficiency>  (286) 
-0.207281

>  <r_i_glide_ligand_efficiency_sa>  (286) 
-0.522315

>  <r_i_glide_ligand_efficiency_ln>  (286) 
-0.879104

>  <r_i_glide_gscore>  (286) 
-3.3165

>  <r_i_glide_lipo>  (286) 
-0.104056

>  <r_i_glide_hbond>  (286) 
-0.2

>  <r_i_glide_metal>  (286) 
-0

>  <r_i_glide_rewards>  (286) 
-1.90711

>  <r_i_glide_evdw>  (286) 
-15.7121

>  <r_i_glide_ecoul>  (286) 
-6.19014

>  <r_i_glide_erotb>  (286) 
0.694473

>  <r_i_glide_esite>  (286) 
-0.0856823

>  <r_i_glide_emodel>  (286) 
-28.1837

>  <r_i_glide_energy>  (286) 
-21.9022

>  <r_i_glide_einternal>  (286) 
0.390401

>  <r_i_glide_intrahb_reward>  (286) 
-0

>  <i_i_glide_confnum>  (286) 
3

>  <i_i_glide_posenum>  (286) 
10

>  <r_i_glide_eff_state_penalty>  (286) 
0

>  <ligand_id>  (286) 
80

>  <original_smiles>  (286) 
CN1C2CCC1CC(Oc1cnccn1)C2

>  <smiles>  (286) 
[H]c1nc([H])c(OC2([H])C([H])([H])C3([H])C([H])([H])C([H])([H])C([H])(C2([H])[H])[N+]3([H])C([H])([H])[H])nc1[H]

$$$$
80:1:2
     RDKit          3D

 34 36  0  0  1  0  0  0  0  0999 V2000
    3.9696   -0.3967   -3.1194 C   0  0  0  0  0  0  0  0  0  0  0  0
    3.8925   -1.4987   -2.1183 N   0  0  1  0  0  0  0  0  0  0  0  0
    2.7067   -2.3588   -2.2493 C   0  0  1  0  0  0  0  0  0  0  0  0
    3.0512   -3.3098   -3.3998 C   0  0  0  0  0  0  0  0  0  0  0  0
    4.5883   -3.4177   -3.3363 C   0  0  0  0  0  0  0  0  0  0  0  0
    4.9909   -2.4836   -2.1699 C   0  0  2  0  0  0  0  0  0  0  0  0
    5.0362   -3.2346   -0.8112 C   0  0  0  0  0  0  0  0  0  0  0  0
    3.7099   -3.9679   -0.5060 C   0  0  1  0  0  0  0  0  0  0  0  0
    3.6806   -4.3273    0.8684 O   0  0  0  0  0  0  0  0  0  0  0  0
    2.7867   -5.2820    1.3200 C   0  0  0  0  0  0  0  0  0  0  0  0
    2.8375   -5.6788    2.6743 C   0  0  0  0  0  0  0  0  0  0  0  0
    1.9881   -6.5957    3.1965 N   0  0  0  0  0  0  0  0  0  0  0  0
    1.0911   -7.1353    2.3423 C   0  0  0  0  0  0  0  0  0  0  0  0
    1.0291   -6.7425    0.9817 C   0  0  0  0  0  0  0  0  0  0  0  0
    1.8674   -5.8146    0.4717 N   0  0  0  0  0  0  0  0  0  0  0  0
    2.4965   -3.0854   -0.8991 C   0  0  0  0  0  0  0  0  0  0  0  0
    4.0231   -0.7334   -4.1563 H   0  0  0  0  0  0  0  0  0  0  0  0
    4.8376    0.2335   -2.9413 H   0  0  0  0  0  0  0  0  0  0  0  0
    3.0940    0.2500   -3.0943 H   0  0  0  0  0  0  0  0  0  0  0  0
    1.8227   -1.8019   -2.5140 H   0  0  0  0  0  0  0  0  0  0  0  0
    2.4968   -4.2427   -3.3433 H   0  0  0  0  0  0  0  0  0  0  0  0
    2.7397   -2.8491   -4.3379 H   0  0  0  0  0  0  0  0  0  0  0  0
    4.9504   -4.4412   -3.2133 H   0  0  0  0  0  0  0  0  0  0  0  0
    5.0045   -3.0456   -4.2718 H   0  0  0  0  0  0  0  0  0  0  0  0
    5.9535   -1.9985   -2.3284 H   0  0  0  0  0  0  0  0  0  0  0  0
    5.8656   -3.9506   -0.8077 H   0  0  0  0  0  0  0  0  0  0  0  0
    5.2516   -2.5181   -0.0186 H   0  0  0  0  0  0  0  0  0  0  0  0
    3.7491   -4.8767   -1.1117 H   0  0  0  0  0  0  0  0  0  0  0  0
    3.5702   -5.2508    3.3417 H   0  0  0  0  0  0  0  0  0  0  0  0
    0.4145   -7.8750    2.7406 H   0  0  0  0  0  0  0  0  0  0  0  0
    0.2981   -7.1788    0.3177 H   0  0  0  0  0  0  0  0  0  0  0  0
    2.3394   -2.3579   -0.1042 H   0  0  0  0  0  0  0  0  0  0  0  0
    1.5706   -3.6572   -0.9745 H   0  0  0  0  0  0  0  0  0  0  0  0
    3.8591   -1.1086   -1.1844 H   0  0  0  0  0  0  0  0  0  0  0  0
  1  2  1  0
  1 17  1  0
  1 18  1  0
  1 19  1  0
  2  6  1  0
  2  3  1  0
  2 34  1  1
  3 16  1  0
  3  4  1  0
  3 20  1  6
  4  5  1  0
  4 21  1  0
  4 22  1  0
  5  6  1  0
  5 23  1  0
  5 24  1  0
  6  7  1  0
  6 25  1  6
  7  8  1  0
  7 26  1  0
  7 27  1  0
  8  9  1  0
  8 16  1  0
  8 28  1  6
  9 10  1  0
 10 15  1  0
 10 11  2  0
 11 12  1  0
 11 29  1  0
 12 13  2  0
 13 14  1  0
 13 30  1  0
 14 15  2  0
 14 31  1  0
 16 32  1  0
 16 33  1  0
M  CHG  1   2   1
M  END
>  <i_m_ct_stereo_status>  (287) 
1

>  <s_m_source_file>  (287) 
/var/tmp/pbs.5076255.sched01/tmpi2d1958y/88otlks1nw.sdf

>  <i_m_source_file_index>  (287) 
43

>  <i_lp_mmshare_version>  (287) 
48012

>  <i_f3d_flags>  (287) 
0

>  <s_epik_input>  (287) 
W0NIM11OKFtDQEBIXTEyKVtDQEhdKFtDSDJdW0NIMl0xKVtDSDJdW0NASF0oW0NIMl0yKU9jM1tjSF1uW2NIXVtjSF1uMw==

>  <s_epik_cmdline>  (287) 
J2VwaWtfcHl0aG9uJywgJy1waHQnLCAnMi4wJywgJy1waCcsICc3LjAnLCAnLXRuJywgJzgnLCAnLW1hJywgJzIwMCcsICctaW1hZScsICc8aW5maWxlLm1hZT4nLCAnLW9tYWUnLCAnPG91dGZpbGUubWFlPic=

>  <r_lp_tautomer_probability>  (287) 
1

>  <r_epik_Ionization_Penalty>  (287) 
0.00349812

>  <r_epik_Ionization_Penalty_Charging>  (287) 
0.00349806

>  <r_epik_Ionization_Penalty_Neutral>  (287) 
6.09961e-08

>  <r_epik_State_Penalty>  (287) 
0.00248184

>  <r_epik_Charging_Adjusted_Penalty>  (287) 
0.0059799

>  <i_epik_Tot_Q>  (287) 
1

>  <i_epik_Tot_abs_Q>  (287) 
1

>  <s_lp_Force_Field>  (287) 
OPLS3e

>  <r_lp_Energy>  (287) 
40.2794

>  <b_lp_Chiralities_Consistent>  (287) 
1

>  <s_lp_Variant>  (287) 
80:0-2

>  <s_i_glide_gridfile>  (287) 
pfpi4k_grid

>  <i_i_glide_lignum>  (287) 
43

>  <i_i_glide_rotatable_bonds>  (287) 
2

>  <r_i_docking_score>  (287) 
-3.28779

>  <r_i_glide_ligand_efficiency>  (287) 
-0.205487

>  <r_i_glide_ligand_efficiency_sa>  (287) 
-0.517795

>  <r_i_glide_ligand_efficiency_ln>  (287) 
-0.871495

>  <r_i_glide_gscore>  (287) 
-3.28779

>  <r_i_glide_lipo>  (287) 
-0.649343

>  <r_i_glide_hbond>  (287) 
-0.0526547

>  <r_i_glide_metal>  (287) 
-0

>  <r_i_glide_rewards>  (287) 
-1.90711

>  <r_i_glide_evdw>  (287) 
-15.8026

>  <r_i_glide_ecoul>  (287) 
-3.54852

>  <r_i_glide_erotb>  (287) 
0.694473

>  <r_i_glide_esite>  (287) 
-0.0507543

>  <r_i_glide_emodel>  (287) 
-25.7532

>  <r_i_glide_energy>  (287) 
-19.3511

>  <r_i_glide_einternal>  (287) 
0.0347153

>  <r_i_glide_intrahb_reward>  (287) 
-0

>  <i_i_glide_confnum>  (287) 
3

>  <i_i_glide_posenum>  (287) 
37

>  <r_i_glide_eff_state_penalty>  (287) 
0

>  <ligand_id>  (287) 
80

>  <original_smiles>  (287) 
CN1C2CCC1CC(Oc1cnccn1)C2

>  <smiles>  (287) 
[H]c1nc([H])c(OC2([H])C([H])([H])C3([H])C([H])([H])C([H])([H])C([H])(C2([H])[H])[N+]3([H])C([H])([H])[H])nc1[H]

$$$$
81:0:0
     RDKit          3D

 76 80  0  0  1  0  0  0  0  0999 V2000
    5.4214   -3.0069    5.2887 C   0  0  0  0  0  0  0  0  0  0  0  0
    5.2155   -2.8060    3.7835 C   0  0  0  0  0  0  0  0  0  0  0  0
    5.7683   -3.7980    2.9938 C   0  0  0  0  0  0  0  0  0  0  0  0
    6.1192   -4.2913    1.5450 C   0  0  1  0  0  0  0  0  0  0  0  0
    7.5646   -4.8967    1.7226 C   0  0  0  0  0  0  0  0  0  0  0  0
    5.2009   -5.5298    1.2158 C   0  0  2  0  0  0  0  0  0  0  0  0
    5.1325   -5.7789   -0.2852 C   0  0  0  0  0  0  0  0  0  0  0  0
    4.8727   -4.5922   -1.2353 C   0  0  0  0  0  0  0  0  0  0  0  0
    5.2349   -3.1967   -0.7501 C   0  0  2  0  0  0  0  0  0  0  0  0
    5.7816   -2.5345   -2.0566 C   0  0  0  0  0  0  0  0  0  0  0  0
    6.3925   -3.3509    0.2692 C   0  0  1  0  0  0  0  0  0  0  0  0
    6.9884   -1.9807    0.5374 C   0  0  0  0  0  0  0  0  0  0  0  0
    5.9255   -1.1948    1.2071 C   0  0  0  0  0  0  0  0  0  0  0  0
    4.6190   -1.5064    1.0857 C   0  0  0  0  0  0  0  0  0  0  0  0
    3.7517   -1.0832    2.2309 C   0  0  0  0  0  0  0  0  0  0  0  0
    4.4213   -1.4746    3.5749 C   0  0  1  0  0  0  0  0  0  0  0  0
    3.3831   -1.3526    4.5349 O   0  0  0  0  0  0  0  0  0  0  0  0
    4.0517   -2.3722   -0.0792 C   0  0  1  0  0  0  0  0  0  0  0  0
    3.5807   -1.2402   -1.0371 C   0  0  0  0  0  0  0  0  0  0  0  0
    2.6845   -3.1786    0.1629 C   0  0  0  0  0  0  0  0  0  0  0  0
    2.4333   -4.7048    0.4893 C   0  0  0  0  0  0  0  0  0  0  0  0
    2.5702   -5.3227    1.9058 C   0  0  1  0  0  0  0  0  0  0  0  0
    2.3525   -4.2387    2.9724 C   0  0  0  0  0  0  0  0  0  0  0  0
    1.3510   -6.2717    2.2048 C   0  0  0  0  0  0  0  0  0  0  0  0
    1.5359   -7.7621    1.9614 C   0  0  0  0  0  0  0  0  0  0  0  0
    2.7590   -8.2711    2.7214 C   0  0  0  0  0  0  0  0  0  0  0  0
    2.6831   -7.9865    4.2459 C   0  0  0  0  0  0  0  0  0  0  0  0
    2.8719   -9.7968    2.5332 C   0  0  0  0  0  0  0  0  0  0  0  0
    3.9654   -7.5755    2.0807 C   0  0  0  0  0  0  0  0  0  0  0  0
    3.9845   -6.0120    2.1148 C   0  0  1  0  0  0  0  0  0  0  0  0
    5.7504   -2.0661    5.7433 H   0  0  0  0  0  0  0  0  0  0  0  0
    6.2079   -3.7277    5.5265 H   0  0  0  0  0  0  0  0  0  0  0  0
    4.5109   -3.3290    5.7937 H   0  0  0  0  0  0  0  0  0  0  0  0
    6.1649   -4.5638    3.6342 H   0  0  0  0  0  0  0  0  0  0  0  0
    7.9680   -5.3969    0.8388 H   0  0  0  0  0  0  0  0  0  0  0  0
    7.6267   -5.6348    2.5275 H   0  0  0  0  0  0  0  0  0  0  0  0
    8.2939   -4.1295    1.9896 H   0  0  0  0  0  0  0  0  0  0  0  0
    5.8557   -6.3609    1.4762 H   0  0  0  0  0  0  0  0  0  0  0  0
    6.1581   -6.0576   -0.4848 H   0  0  0  0  0  0  0  0  0  0  0  0
    4.5316   -6.6388   -0.5819 H   0  0  0  0  0  0  0  0  0  0  0  0
    5.4042   -4.8375   -2.1542 H   0  0  0  0  0  0  0  0  0  0  0  0
    3.8676   -4.5246   -1.6162 H   0  0  0  0  0  0  0  0  0  0  0  0
    6.0411   -1.4861   -1.9473 H   0  0  0  0  0  0  0  0  0  0  0  0
    5.0546   -2.5911   -2.8664 H   0  0  0  0  0  0  0  0  0  0  0  0
    6.6790   -3.0400   -2.4171 H   0  0  0  0  0  0  0  0  0  0  0  0
    7.1528   -3.8469   -0.3374 H   0  0  0  0  0  0  0  0  0  0  0  0
    7.8360   -2.0837    1.1859 H   0  0  0  0  0  0  0  0  0  0  0  0
    7.3589   -1.4592   -0.3347 H   0  0  0  0  0  0  0  0  0  0  0  0
    6.2864   -0.5532    1.9915 H   0  0  0  0  0  0  0  0  0  0  0  0
    3.6586    0.0010    2.1838 H   0  0  0  0  0  0  0  0  0  0  0  0
    2.7322   -1.4347    2.1829 H   0  0  0  0  0  0  0  0  0  0  0  0
    5.1271   -0.6815    3.8356 H   0  0  0  0  0  0  0  0  0  0  0  0
    2.7417   -0.7511    4.2048 H   0  0  0  0  0  0  0  0  0  0  0  0
    3.2298   -1.5962   -2.0089 H   0  0  0  0  0  0  0  0  0  0  0  0
    4.3324   -0.4686   -1.2102 H   0  0  0  0  0  0  0  0  0  0  0  0
    2.7607   -0.7009   -0.5696 H   0  0  0  0  0  0  0  0  0  0  0  0
    1.9796   -2.5891    0.7334 H   0  0  0  0  0  0  0  0  0  0  0  0
    2.1899   -3.1244   -0.8069 H   0  0  0  0  0  0  0  0  0  0  0  0
    1.4097   -4.7768    0.2311 H   0  0  0  0  0  0  0  0  0  0  0  0
    2.7391   -5.4287   -0.2477 H   0  0  0  0  0  0  0  0  0  0  0  0
    2.5249   -4.6193    3.9852 H   0  0  0  0  0  0  0  0  0  0  0  0
    1.3502   -3.8142    2.9438 H   0  0  0  0  0  0  0  0  0  0  0  0
    3.0433   -3.4440    2.8069 H   0  0  0  0  0  0  0  0  0  0  0  0
    1.0226   -6.1688    3.2380 H   0  0  0  0  0  0  0  0  0  0  0  0
    0.4668   -5.9648    1.6485 H   0  0  0  0  0  0  0  0  0  0  0  0
    0.6466   -8.3062    2.2690 H   0  0  0  0  0  0  0  0  0  0  0  0
    1.6451   -7.9520    0.8974 H   0  0  0  0  0  0  0  0  0  0  0  0
    3.5082   -8.4545    4.7819 H   0  0  0  0  0  0  0  0  0  0  0  0
    1.7514   -8.3610    4.6721 H   0  0  0  0  0  0  0  0  0  0  0  0
    2.7347   -6.9213    4.4759 H   0  0  0  0  0  0  0  0  0  0  0  0
    3.7601  -10.1947    3.0255 H   0  0  0  0  0  0  0  0  0  0  0  0
    2.9342  -10.0631    1.4740 H   0  0  0  0  0  0  0  0  0  0  0  0
    2.0035  -10.3106    2.9511 H   0  0  0  0  0  0  0  0  0  0  0  0
    4.8614   -7.9498    2.5803 H   0  0  0  0  0  0  0  0  0  0  0  0
    4.0429   -7.9384    1.0555 H   0  0  0  0  0  0  0  0  0  0  0  0
    4.2627   -5.8260    3.1523 H   0  0  0  0  0  0  0  0  0  0  0  0
  1  2  1  0
  1 31  1  0
  1 32  1  0
  1 33  1  0
  2 16  1  0
  2  3  2  3
  3  4  1  0
  3 34  1  0
  4 11  1  0
  4  5  1  1
  4  6  1  0
  5 35  1  0
  5 36  1  0
  5 37  1  0
  6 30  1  0
  6  7  1  0
  6 38  1  1
  7  8  1  0
  7 39  1  0
  7 40  1  0
  8  9  1  0
  8 41  1  0
  8 42  1  0
  9 18  1  0
  9 10  1  6
  9 11  1  0
 10 43  1  0
 10 44  1  0
 10 45  1  0
 11 12  1  0
 11 46  1  6
 12 13  1  0
 12 47  1  0
 12 48  1  0
 13 14  2  0
 13 49  1  0
 14 15  1  0
 14 18  1  0
 15 16  1  0
 15 50  1  0
 15 51  1  0
 16 17  1  0
 16 52  1  1
 17 53  1  0
 18 19  1  6
 18 20  1  0
 19 54  1  0
 19 55  1  0
 19 56  1  0
 20 21  1  0
 20 57  1  0
 20 58  1  0
 21 22  1  0
 21 59  1  0
 21 60  1  0
 22 30  1  0
 22 23  1  1
 22 24  1  0
 23 61  1  0
 23 62  1  0
 23 63  1  0
 24 25  1  0
 24 64  1  0
 24 65  1  0
 25 26  1  0
 25 66  1  0
 25 67  1  0
 26 27  1  0
 26 28  1  0
 26 29  1  0
 27 68  1  0
 27 69  1  0
 27 70  1  0
 28 71  1  0
 28 72  1  0
 28 73  1  0
 29 30  1  0
 29 74  1  0
 29 75  1  0
 30 76  1  1
M  END
>  <i_m_ct_stereo_status>  (288) 
1

>  <s_m_source_file>  (288) 
/var/tmp/pbs.5076255.sched01/tmpi2d1958y/88otlks1nw.sdf

>  <i_m_source_file_index>  (288) 
44

>  <i_lp_mmshare_version>  (288) 
48012

>  <i_f3d_flags>  (288) 
0

>  <s_epik_input>  (288) 
W0NIM10vQyg9W0NIXS8xKVtDQEhdKFtPSF0pW0NIMl1DMj1bQ0hdW0NIMl1bQ0BASF0zW0NAQF0oW0NIM10pKFtDSDJdW0NIMl00KVtDQEBdMihbQ0gzXSlbQ0gyXVtDSDJdW0NAQF0oW0NIM10pKFtDSDJdW0NIMl1DKFtDSDNdKShbQ0gzXSlbQ0gyXTUpW0NAQEhdNVtDQEBIXTRbQ0BdMTNbQ0gzXQ==

>  <s_epik_cmdline>  (288) 
J2VwaWtfcHl0aG9uJywgJy1waHQnLCAnMi4wJywgJy1waCcsICc3LjAnLCAnLXRuJywgJzgnLCAnLW1hJywgJzIwMCcsICctaW1hZScsICc8aW5maWxlLm1hZT4nLCAnLW9tYWUnLCAnPG91dGZpbGUubWFlPic=

>  <r_lp_tautomer_probability>  (288) 
1

>  <r_epik_Ionization_Penalty>  (288) 
2.31591e-07

>  <r_epik_Ionization_Penalty_Charging>  (288) 
0

>  <r_epik_Ionization_Penalty_Neutral>  (288) 
2.31591e-07

>  <r_epik_State_Penalty>  (288) 
-0

>  <r_epik_Charging_Adjusted_Penalty>  (288) 
0

>  <i_epik_Tot_Q>  (288) 
0

>  <i_epik_Tot_abs_Q>  (288) 
0

>  <s_lp_Force_Field>  (288) 
OPLS3e

>  <r_lp_Energy>  (288) 
197.345

>  <b_lp_Chiralities_Consistent>  (288) 
1

>  <s_lp_Variant>  (288) 
81:0-1

>  <s_i_glide_gridfile>  (288) 
pfpi4k_grid

>  <i_i_glide_lignum>  (288) 
44

>  <i_i_glide_rotatable_bonds>  (288) 
1

>  <r_i_docking_score>  (288) 
-1.97649

>  <r_i_glide_ligand_efficiency>  (288) 
-0.0658831

>  <r_i_glide_ligand_efficiency_sa>  (288) 
-0.204714

>  <r_i_glide_ligand_efficiency_ln>  (288) 
-0.449081

>  <r_i_glide_gscore>  (288) 
-1.97649

>  <r_i_glide_lipo>  (288) 
-0.684683

>  <r_i_glide_hbond>  (288) 
0

>  <r_i_glide_metal>  (288) 
-0

>  <r_i_glide_rewards>  (288) 
-0.609034

>  <r_i_glide_evdw>  (288) 
-13.6019

>  <r_i_glide_ecoul>  (288) 
-0.0178695

>  <r_i_glide_erotb>  (288) 
0

>  <r_i_glide_esite>  (288) 
0

>  <r_i_glide_emodel>  (288) 
-12.0025

>  <r_i_glide_energy>  (288) 
-13.6198

>  <r_i_glide_einternal>  (288) 
0.964106

>  <r_i_glide_intrahb_reward>  (288) 
-0

>  <i_i_glide_confnum>  (288) 
1

>  <i_i_glide_posenum>  (288) 
1

>  <r_i_glide_eff_state_penalty>  (288) 
0

>  <ligand_id>  (288) 
81

>  <original_smiles>  (288) 
CC1=CC2(C)C3CCC4(C)C2CC=C(CC1O)C4(C)CCC1(C)CCC(C)(C)CC31

>  <smiles>  (288) 
[H]OC1([H])C(C([H])([H])[H])=C([H])C2(C([H])([H])[H])C3([H])C([H])([H])C([H])([H])C4(C([H])([H])[H])C2([H])C([H])([H])C([H])=C(C1([H])[H])C4(C([H])([H])[H])C([H])([H])C([H])([H])C1(C([H])([H])[H])C([H])([H])C([H])([H])C(C([H])([H])[H])(C([H])([H])[H])C([H])([H])C31[H]

$$$$
81:0:1
     RDKit          3D

 76 80  0  0  1  0  0  0  0  0999 V2000
    5.4160   -3.0049    5.2948 C   0  0  0  0  0  0  0  0  0  0  0  0
    5.2022   -2.8103    3.7854 C   0  0  0  0  0  0  0  0  0  0  0  0
    5.7629   -3.7912    3.0014 C   0  0  0  0  0  0  0  0  0  0  0  0
    6.1119   -4.2893    1.5510 C   0  0  1  0  0  0  0  0  0  0  0  0
    7.5674   -4.8858    1.7175 C   0  0  0  0  0  0  0  0  0  0  0  0
    5.2038   -5.5270    1.2136 C   0  0  2  0  0  0  0  0  0  0  0  0
    5.1373   -5.7684   -0.3001 C   0  0  0  0  0  0  0  0  0  0  0  0
    4.8699   -4.5793   -1.2418 C   0  0  0  0  0  0  0  0  0  0  0  0
    5.2366   -3.1861   -0.7420 C   0  0  2  0  0  0  0  0  0  0  0  0
    5.7759   -2.5134   -2.0484 C   0  0  0  0  0  0  0  0  0  0  0  0
    6.3887   -3.3348    0.2761 C   0  0  1  0  0  0  0  0  0  0  0  0
    6.9819   -1.9687    0.5744 C   0  0  0  0  0  0  0  0  0  0  0  0
    5.8990   -1.1747    1.2225 C   0  0  0  0  0  0  0  0  0  0  0  0
    4.6032   -1.5054    1.0899 C   0  0  0  0  0  0  0  0  0  0  0  0
    3.7302   -1.0830    2.2424 C   0  0  0  0  0  0  0  0  0  0  0  0
    4.4060   -1.4710    3.5733 C   0  0  1  0  0  0  0  0  0  0  0  0
    3.3687   -1.3326    4.5398 O   0  0  0  0  0  0  0  0  0  0  0  0
    4.0334   -2.3668   -0.0711 C   0  0  1  0  0  0  0  0  0  0  0  0
    3.5612   -1.2412   -1.0293 C   0  0  0  0  0  0  0  0  0  0  0  0
    2.6776   -3.1890    0.1701 C   0  0  0  0  0  0  0  0  0  0  0  0
    2.4370   -4.7154    0.4905 C   0  0  0  0  0  0  0  0  0  0  0  0
    2.5764   -5.3308    1.9078 C   0  0  1  0  0  0  0  0  0  0  0  0
    2.3558   -4.2520    2.9738 C   0  0  0  0  0  0  0  0  0  0  0  0
    1.3560   -6.2917    2.1976 C   0  0  0  0  0  0  0  0  0  0  0  0
    1.5551   -7.7778    1.9607 C   0  0  0  0  0  0  0  0  0  0  0  0
    2.7796   -8.2846    2.7179 C   0  0  0  0  0  0  0  0  0  0  0  0
    2.7040   -7.9995    4.2408 C   0  0  0  0  0  0  0  0  0  0  0  0
    2.8996   -9.8079    2.5218 C   0  0  0  0  0  0  0  0  0  0  0  0
    3.9810   -7.5816    2.0709 C   0  0  0  0  0  0  0  0  0  0  0  0
    3.9950   -6.0141    2.1131 C   0  0  1  0  0  0  0  0  0  0  0  0
    5.7483   -2.0703    5.7440 H   0  0  0  0  0  0  0  0  0  0  0  0
    6.2035   -3.7247    5.5202 H   0  0  0  0  0  0  0  0  0  0  0  0
    4.5049   -3.3377    5.7980 H   0  0  0  0  0  0  0  0  0  0  0  0
    6.1650   -4.5606    3.6319 H   0  0  0  0  0  0  0  0  0  0  0  0
    7.9670   -5.3815    0.8238 H   0  0  0  0  0  0  0  0  0  0  0  0
    7.6303   -5.6245    2.5168 H   0  0  0  0  0  0  0  0  0  0  0  0
    8.2920   -4.1173    1.9769 H   0  0  0  0  0  0  0  0  0  0  0  0
    5.8573   -6.3512    1.4677 H   0  0  0  0  0  0  0  0  0  0  0  0
    6.1680   -6.0374   -0.4825 H   0  0  0  0  0  0  0  0  0  0  0  0
    4.5361   -6.6251   -0.5873 H   0  0  0  0  0  0  0  0  0  0  0  0
    5.4083   -4.8141   -2.1611 H   0  0  0  0  0  0  0  0  0  0  0  0
    3.8630   -4.5029   -1.6012 H   0  0  0  0  0  0  0  0  0  0  0  0
    6.0285   -1.4663   -1.9280 H   0  0  0  0  0  0  0  0  0  0  0  0
    5.0421   -2.5781   -2.8516 H   0  0  0  0  0  0  0  0  0  0  0  0
    6.6669   -3.0174   -2.4110 H   0  0  0  0  0  0  0  0  0  0  0  0
    7.1491   -3.8230   -0.3280 H   0  0  0  0  0  0  0  0  0  0  0  0
    7.7912   -2.0663    1.2618 H   0  0  0  0  0  0  0  0  0  0  0  0
    7.3747   -1.4540   -0.2880 H   0  0  0  0  0  0  0  0  0  0  0  0
    6.2591   -0.5360    2.0024 H   0  0  0  0  0  0  0  0  0  0  0  0
    3.6367   -0.0036    2.1973 H   0  0  0  0  0  0  0  0  0  0  0  0
    2.7157   -1.4462    2.1969 H   0  0  0  0  0  0  0  0  0  0  0  0
    5.1166   -0.6824    3.8341 H   0  0  0  0  0  0  0  0  0  0  0  0
    3.7699   -1.1972    5.3820 H   0  0  0  0  0  0  0  0  0  0  0  0
    3.2106   -1.6005   -1.9990 H   0  0  0  0  0  0  0  0  0  0  0  0
    4.3088   -0.4651   -1.2013 H   0  0  0  0  0  0  0  0  0  0  0  0
    2.7434   -0.6958   -0.5542 H   0  0  0  0  0  0  0  0  0  0  0  0
    1.9762   -2.6025    0.7401 H   0  0  0  0  0  0  0  0  0  0  0  0
    2.1821   -3.1285   -0.7991 H   0  0  0  0  0  0  0  0  0  0  0  0
    1.4145   -4.7937    0.2307 H   0  0  0  0  0  0  0  0  0  0  0  0
    2.7495   -5.4379   -0.2564 H   0  0  0  0  0  0  0  0  0  0  0  0
    2.5296   -4.6359    3.9824 H   0  0  0  0  0  0  0  0  0  0  0  0
    1.3438   -3.8335    2.9460 H   0  0  0  0  0  0  0  0  0  0  0  0
    3.0383   -3.4513    2.8055 H   0  0  0  0  0  0  0  0  0  0  0  0
    1.0314   -6.1840    3.2473 H   0  0  0  0  0  0  0  0  0  0  0  0
    0.4849   -5.9903    1.6457 H   0  0  0  0  0  0  0  0  0  0  0  0
    0.6687   -8.3282    2.2657 H   0  0  0  0  0  0  0  0  0  0  0  0
    1.6603   -7.9617    0.8914 H   0  0  0  0  0  0  0  0  0  0  0  0
    3.5346   -8.4661    4.7751 H   0  0  0  0  0  0  0  0  0  0  0  0
    1.7762   -8.3846    4.6652 H   0  0  0  0  0  0  0  0  0  0  0  0
    2.7485   -6.9376    4.4703 H   0  0  0  0  0  0  0  0  0  0  0  0
    3.7948  -10.1977    3.0184 H   0  0  0  0  0  0  0  0  0  0  0  0
    2.9646  -10.0716    1.4682 H   0  0  0  0  0  0  0  0  0  0  0  0
    2.0370  -10.3237    2.9451 H   0  0  0  0  0  0  0  0  0  0  0  0
    4.8778   -7.9476    2.5709 H   0  0  0  0  0  0  0  0  0  0  0  0
    4.0597   -7.9370    1.0467 H   0  0  0  0  0  0  0  0  0  0  0  0
    4.2687   -5.8325    3.1536 H   0  0  0  0  0  0  0  0  0  0  0  0
  1  2  1  0
  1 31  1  0
  1 32  1  0
  1 33  1  0
  2 16  1  0
  2  3  2  3
  3  4  1  0
  3 34  1  0
  4 11  1  0
  4  5  1  1
  4  6  1  0
  5 35  1  0
  5 36  1  0
  5 37  1  0
  6 30  1  0
  6  7  1  0
  6 38  1  1
  7  8  1  0
  7 39  1  0
  7 40  1  0
  8  9  1  0
  8 41  1  0
  8 42  1  0
  9 18  1  0
  9 10  1  6
  9 11  1  0
 10 43  1  0
 10 44  1  0
 10 45  1  0
 11 12  1  0
 11 46  1  6
 12 13  1  0
 12 47  1  0
 12 48  1  0
 13 14  2  0
 13 49  1  0
 14 15  1  0
 14 18  1  0
 15 16  1  0
 15 50  1  0
 15 51  1  0
 16 17  1  0
 16 52  1  1
 17 53  1  0
 18 19  1  6
 18 20  1  0
 19 54  1  0
 19 55  1  0
 19 56  1  0
 20 21  1  0
 20 57  1  0
 20 58  1  0
 21 22  1  0
 21 59  1  0
 21 60  1  0
 22 30  1  0
 22 23  1  1
 22 24  1  0
 23 61  1  0
 23 62  1  0
 23 63  1  0
 24 25  1  0
 24 64  1  0
 24 65  1  0
 25 26  1  0
 25 66  1  0
 25 67  1  0
 26 27  1  0
 26 28  1  0
 26 29  1  0
 27 68  1  0
 27 69  1  0
 27 70  1  0
 28 71  1  0
 28 72  1  0
 28 73  1  0
 29 30  1  0
 29 74  1  0
 29 75  1  0
 30 76  1  1
M  END
>  <i_m_ct_stereo_status>  (289) 
1

>  <s_m_source_file>  (289) 
/var/tmp/pbs.5076255.sched01/tmpi2d1958y/88otlks1nw.sdf

>  <i_m_source_file_index>  (289) 
44

>  <i_lp_mmshare_version>  (289) 
48012

>  <i_f3d_flags>  (289) 
0

>  <s_epik_input>  (289) 
W0NIM10vQyg9W0NIXS8xKVtDQEhdKFtPSF0pW0NIMl1DMj1bQ0hdW0NIMl1bQ0BASF0zW0NAQF0oW0NIM10pKFtDSDJdW0NIMl00KVtDQEBdMihbQ0gzXSlbQ0gyXVtDSDJdW0NAQF0oW0NIM10pKFtDSDJdW0NIMl1DKFtDSDNdKShbQ0gzXSlbQ0gyXTUpW0NAQEhdNVtDQEBIXTRbQ0BdMTNbQ0gzXQ==

>  <s_epik_cmdline>  (289) 
J2VwaWtfcHl0aG9uJywgJy1waHQnLCAnMi4wJywgJy1waCcsICc3LjAnLCAnLXRuJywgJzgnLCAnLW1hJywgJzIwMCcsICctaW1hZScsICc8aW5maWxlLm1hZT4nLCAnLW9tYWUnLCAnPG91dGZpbGUubWFlPic=

>  <r_lp_tautomer_probability>  (289) 
1

>  <r_epik_Ionization_Penalty>  (289) 
2.31591e-07

>  <r_epik_Ionization_Penalty_Charging>  (289) 
0

>  <r_epik_Ionization_Penalty_Neutral>  (289) 
2.31591e-07

>  <r_epik_State_Penalty>  (289) 
-0

>  <r_epik_Charging_Adjusted_Penalty>  (289) 
0

>  <i_epik_Tot_Q>  (289) 
0

>  <i_epik_Tot_abs_Q>  (289) 
0

>  <s_lp_Force_Field>  (289) 
OPLS3e

>  <r_lp_Energy>  (289) 
197.345

>  <b_lp_Chiralities_Consistent>  (289) 
1

>  <s_lp_Variant>  (289) 
81:0-1

>  <s_i_glide_gridfile>  (289) 
pfpi4k_grid

>  <i_i_glide_lignum>  (289) 
44

>  <i_i_glide_rotatable_bonds>  (289) 
1

>  <r_i_docking_score>  (289) 
-1.87706

>  <r_i_glide_ligand_efficiency>  (289) 
-0.0625687

>  <r_i_glide_ligand_efficiency_sa>  (289) 
-0.194416

>  <r_i_glide_ligand_efficiency_ln>  (289) 
-0.426489

>  <r_i_glide_gscore>  (289) 
-1.87706

>  <r_i_glide_lipo>  (289) 
-0.670856

>  <r_i_glide_hbond>  (289) 
0

>  <r_i_glide_metal>  (289) 
-0

>  <r_i_glide_rewards>  (289) 
-0.609034

>  <r_i_glide_evdw>  (289) 
-13.8123

>  <r_i_glide_ecoul>  (289) 
0.62296

>  <r_i_glide_erotb>  (289) 
0

>  <r_i_glide_esite>  (289) 
0

>  <r_i_glide_emodel>  (289) 
-12.4055

>  <r_i_glide_energy>  (289) 
-13.1894

>  <r_i_glide_einternal>  (289) 
0.573918

>  <r_i_glide_intrahb_reward>  (289) 
-0

>  <i_i_glide_confnum>  (289) 
2

>  <i_i_glide_posenum>  (289) 
12

>  <r_i_glide_eff_state_penalty>  (289) 
0

>  <ligand_id>  (289) 
81

>  <original_smiles>  (289) 
CC1=CC2(C)C3CCC4(C)C2CC=C(CC1O)C4(C)CCC1(C)CCC(C)(C)CC31

>  <smiles>  (289) 
[H]OC1([H])C(C([H])([H])[H])=C([H])C2(C([H])([H])[H])C3([H])C([H])([H])C([H])([H])C4(C([H])([H])[H])C2([H])C([H])([H])C([H])=C(C1([H])[H])C4(C([H])([H])[H])C([H])([H])C([H])([H])C1(C([H])([H])[H])C([H])([H])C([H])([H])C(C([H])([H])[H])(C([H])([H])[H])C([H])([H])C31[H]

$$$$
81:0:2
     RDKit          3D

 76 80  0  0  1  0  0  0  0  0999 V2000
    7.6352   -5.4865    2.2640 C   0  0  0  0  0  0  0  0  0  0  0  0
    6.1872   -5.2537    2.7121 C   0  0  0  0  0  0  0  0  0  0  0  0
    5.7723   -3.9304    2.8151 C   0  0  0  0  0  0  0  0  0  0  0  0
    4.6154   -2.9065    3.2301 C   0  0  1  0  0  0  0  0  0  0  0  0
    5.3876   -1.7543    3.9261 C   0  0  0  0  0  0  0  0  0  0  0  0
    4.0227   -2.1999    1.9618 C   0  0  2  0  0  0  0  0  0  0  0  0
    2.6677   -1.5016    2.2755 C   0  0  0  0  0  0  0  0  0  0  0  0
    1.6038   -2.3347    3.0254 C   0  0  0  0  0  0  0  0  0  0  0  0
    2.1086   -3.5161    3.9148 C   0  0  2  0  0  0  0  0  0  0  0  0
    1.1378   -3.4090    5.1354 C   0  0  0  0  0  0  0  0  0  0  0  0
    3.5373   -3.1563    4.3862 C   0  0  1  0  0  0  0  0  0  0  0  0
    3.9909   -4.0623    5.5330 C   0  0  0  0  0  0  0  0  0  0  0  0
    4.0506   -5.4339    4.9881 C   0  0  0  0  0  0  0  0  0  0  0  0
    3.3873   -5.7773    3.8576 C   0  0  0  0  0  0  0  0  0  0  0  0
    4.0194   -6.8873    3.0783 C   0  0  0  0  0  0  0  0  0  0  0  0
    5.5365   -6.6633    2.9385 C   0  0  1  0  0  0  0  0  0  0  0  0
    5.9362   -7.5706    1.9259 O   0  0  0  0  0  0  0  0  0  0  0  0
    2.1615   -4.9986    3.2952 C   0  0  1  0  0  0  0  0  0  0  0  0
    0.9965   -5.8711    3.8661 C   0  0  0  0  0  0  0  0  0  0  0  0
    1.9521   -5.1238    1.7229 C   0  0  0  0  0  0  0  0  0  0  0  0
    2.2573   -4.1065    0.5600 C   0  0  0  0  0  0  0  0  0  0  0  0
    3.5975   -3.8958   -0.1202 C   0  0  1  0  0  0  0  0  0  0  0  0
    4.3913   -5.2017   -0.0247 C   0  0  0  0  0  0  0  0  0  0  0  0
    3.3488   -3.7367   -1.6668 C   0  0  0  0  0  0  0  0  0  0  0  0
    3.3281   -2.3759   -2.3156 C   0  0  0  0  0  0  0  0  0  0  0  0
    4.5957   -1.6534   -1.9325 C   0  0  0  0  0  0  0  0  0  0  0  0
    5.8826   -2.4258   -2.2948 C   0  0  0  0  0  0  0  0  0  0  0  0
    4.5978   -0.3512   -2.7093 C   0  0  0  0  0  0  0  0  0  0  0  0
    4.4812   -1.3992   -0.4205 C   0  0  0  0  0  0  0  0  0  0  0  0
    4.3943   -2.6698    0.4912 C   0  0  1  0  0  0  0  0  0  0  0  0
    8.1111   -6.2401    2.9053 H   0  0  0  0  0  0  0  0  0  0  0  0
    8.2980   -4.6318    2.3254 H   0  0  0  0  0  0  0  0  0  0  0  0
    7.6886   -5.8349    1.2298 H   0  0  0  0  0  0  0  0  0  0  0  0
    6.5773   -3.3077    2.4670 H   0  0  0  0  0  0  0  0  0  0  0  0
    4.7735   -0.8967    4.2454 H   0  0  0  0  0  0  0  0  0  0  0  0
    6.1589   -1.3460    3.2764 H   0  0  0  0  0  0  0  0  0  0  0  0
    5.8555   -2.1514    4.8124 H   0  0  0  0  0  0  0  0  0  0  0  0
    4.5933   -1.2791    1.8823 H   0  0  0  0  0  0  0  0  0  0  0  0
    2.8982   -0.6613    2.9315 H   0  0  0  0  0  0  0  0  0  0  0  0
    2.2223   -1.0512    1.3899 H   0  0  0  0  0  0  0  0  0  0  0  0
    1.0783   -1.5945    3.6329 H   0  0  0  0  0  0  0  0  0  0  0  0
    0.8159   -2.6601    2.3670 H   0  0  0  0  0  0  0  0  0  0  0  0
    1.2916   -4.1665    5.8980 H   0  0  0  0  0  0  0  0  0  0  0  0
    0.0982   -3.4644    4.8151 H   0  0  0  0  0  0  0  0  0  0  0  0
    1.2513   -2.4448    5.6403 H   0  0  0  0  0  0  0  0  0  0  0  0
    3.3451   -2.2071    4.8924 H   0  0  0  0  0  0  0  0  0  0  0  0
    4.9934   -3.7961    5.8653 H   0  0  0  0  0  0  0  0  0  0  0  0
    3.3541   -4.0231    6.4140 H   0  0  0  0  0  0  0  0  0  0  0  0
    4.8647   -6.0200    5.3742 H   0  0  0  0  0  0  0  0  0  0  0  0
    3.8454   -7.8101    3.6295 H   0  0  0  0  0  0  0  0  0  0  0  0
    3.5819   -7.0889    2.1120 H   0  0  0  0  0  0  0  0  0  0  0  0
    6.0129   -7.0409    3.8435 H   0  0  0  0  0  0  0  0  0  0  0  0
    6.8739   -7.6218    1.9378 H   0  0  0  0  0  0  0  0  0  0  0  0
    0.0120   -5.4301    3.7243 H   0  0  0  0  0  0  0  0  0  0  0  0
    1.1120   -6.0722    4.9332 H   0  0  0  0  0  0  0  0  0  0  0  0
    0.9724   -6.8562    3.3958 H   0  0  0  0  0  0  0  0  0  0  0  0
    2.0633   -6.1408    1.3600 H   0  0  0  0  0  0  0  0  0  0  0  0
    0.8898   -5.1030    1.6454 H   0  0  0  0  0  0  0  0  0  0  0  0
    1.6380   -4.5879   -0.2050 H   0  0  0  0  0  0  0  0  0  0  0  0
    1.8371   -3.1039    0.6608 H   0  0  0  0  0  0  0  0  0  0  0  0
    5.3998   -5.1359   -0.4455 H   0  0  0  0  0  0  0  0  0  0  0  0
    3.8598   -6.0100   -0.5207 H   0  0  0  0  0  0  0  0  0  0  0  0
    4.4552   -5.4696    1.0007 H   0  0  0  0  0  0  0  0  0  0  0  0
    4.1166   -4.2603   -2.2211 H   0  0  0  0  0  0  0  0  0  0  0  0
    2.4665   -4.2545   -2.0237 H   0  0  0  0  0  0  0  0  0  0  0  0
    3.2649   -2.4845   -3.3958 H   0  0  0  0  0  0  0  0  0  0  0  0
    2.4405   -1.8248   -2.0137 H   0  0  0  0  0  0  0  0  0  0  0  0
    6.7671   -1.8258   -2.0952 H   0  0  0  0  0  0  0  0  0  0  0  0
    5.8767   -2.6843   -3.3554 H   0  0  0  0  0  0  0  0  0  0  0  0
    6.0143   -3.3416   -1.7216 H   0  0  0  0  0  0  0  0  0  0  0  0
    5.4446    0.2253   -2.3485 H   0  0  0  0  0  0  0  0  0  0  0  0
    3.6741    0.1733   -2.5161 H   0  0  0  0  0  0  0  0  0  0  0  0
    4.6531   -0.4888   -3.7955 H   0  0  0  0  0  0  0  0  0  0  0  0
    5.3400   -0.7989   -0.1088 H   0  0  0  0  0  0  0  0  0  0  0  0
    3.6116   -0.7611   -0.2480 H   0  0  0  0  0  0  0  0  0  0  0  0
    5.4405   -2.9836    0.5051 H   0  0  0  0  0  0  0  0  0  0  0  0
  1  2  1  0
  1 31  1  0
  1 32  1  0
  1 33  1  0
  2 16  1  0
  2  3  2  3
  3  4  1  0
  3 34  1  0
  4 11  1  0
  4  5  1  1
  4  6  1  0
  5 35  1  0
  5 36  1  0
  5 37  1  0
  6 30  1  0
  6  7  1  0
  6 38  1  6
  7  8  1  0
  7 39  1  0
  7 40  1  0
  8  9  1  0
  8 41  1  0
  8 42  1  0
  9 18  1  0
  9 10  1  1
  9 11  1  0
 10 43  1  0
 10 44  1  0
 10 45  1  0
 11 12  1  0
 11 46  1  1
 12 13  1  0
 12 47  1  0
 12 48  1  0
 13 14  2  0
 13 49  1  0
 14 15  1  0
 14 18  1  0
 15 16  1  0
 15 50  1  0
 15 51  1  0
 16 17  1  0
 16 52  1  1
 17 53  1  0
 18 19  1  1
 18 20  1  0
 19 54  1  0
 19 55  1  0
 19 56  1  0
 20 21  1  0
 20 57  1  0
 20 58  1  0
 21 22  1  0
 21 59  1  0
 21 60  1  0
 22 30  1  0
 22 23  1  6
 22 24  1  0
 23 61  1  0
 23 62  1  0
 23 63  1  0
 24 25  1  0
 24 64  1  0
 24 65  1  0
 25 26  1  0
 25 66  1  0
 25 67  1  0
 26 27  1  0
 26 28  1  0
 26 29  1  0
 27 68  1  0
 27 69  1  0
 27 70  1  0
 28 71  1  0
 28 72  1  0
 28 73  1  0
 29 30  1  0
 29 74  1  0
 29 75  1  0
 30 76  1  1
M  END
>  <i_m_ct_stereo_status>  (290) 
1

>  <s_m_source_file>  (290) 
/var/tmp/pbs.5076255.sched01/tmpi2d1958y/88otlks1nw.sdf

>  <i_m_source_file_index>  (290) 
44

>  <i_lp_mmshare_version>  (290) 
48012

>  <i_f3d_flags>  (290) 
0

>  <s_epik_input>  (290) 
W0NIM10vQyg9W0NIXS8xKVtDQEhdKFtPSF0pW0NIMl1DMj1bQ0hdW0NIMl1bQ0BASF0zW0NAQF0oW0NIM10pKFtDSDJdW0NIMl00KVtDQEBdMihbQ0gzXSlbQ0gyXVtDSDJdW0NAQF0oW0NIM10pKFtDSDJdW0NIMl1DKFtDSDNdKShbQ0gzXSlbQ0gyXTUpW0NAQEhdNVtDQEBIXTRbQ0BdMTNbQ0gzXQ==

>  <s_epik_cmdline>  (290) 
J2VwaWtfcHl0aG9uJywgJy1waHQnLCAnMi4wJywgJy1waCcsICc3LjAnLCAnLXRuJywgJzgnLCAnLW1hJywgJzIwMCcsICctaW1hZScsICc8aW5maWxlLm1hZT4nLCAnLW9tYWUnLCAnPG91dGZpbGUubWFlPic=

>  <r_lp_tautomer_probability>  (290) 
1

>  <r_epik_Ionization_Penalty>  (290) 
2.31591e-07

>  <r_epik_Ionization_Penalty_Charging>  (290) 
0

>  <r_epik_Ionization_Penalty_Neutral>  (290) 
2.31591e-07

>  <r_epik_State_Penalty>  (290) 
-0

>  <r_epik_Charging_Adjusted_Penalty>  (290) 
0

>  <i_epik_Tot_Q>  (290) 
0

>  <i_epik_Tot_abs_Q>  (290) 
0

>  <s_lp_Force_Field>  (290) 
OPLS3e

>  <r_lp_Energy>  (290) 
197.345

>  <b_lp_Chiralities_Consistent>  (290) 
1

>  <s_lp_Variant>  (290) 
81:0-1

>  <s_i_glide_gridfile>  (290) 
pfpi4k_grid

>  <i_i_glide_lignum>  (290) 
44

>  <i_i_glide_rotatable_bonds>  (290) 
1

>  <r_i_docking_score>  (290) 
-1.07968

>  <r_i_glide_ligand_efficiency>  (290) 
-0.0359892

>  <r_i_glide_ligand_efficiency_sa>  (290) 
-0.111827

>  <r_i_glide_ligand_efficiency_ln>  (290) 
-0.245314

>  <r_i_glide_gscore>  (290) 
-1.07968

>  <r_i_glide_lipo>  (290) 
-0.214525

>  <r_i_glide_hbond>  (290) 
0

>  <r_i_glide_metal>  (290) 
-0

>  <r_i_glide_rewards>  (290) 
-0.609034

>  <r_i_glide_evdw>  (290) 
-5.11313

>  <r_i_glide_ecoul>  (290) 
-0.00306168

>  <r_i_glide_erotb>  (290) 
0

>  <r_i_glide_esite>  (290) 
0

>  <r_i_glide_emodel>  (290) 
-3.45345

>  <r_i_glide_energy>  (290) 
-5.1162

>  <r_i_glide_einternal>  (290) 
0.455832

>  <r_i_glide_intrahb_reward>  (290) 
-0

>  <i_i_glide_confnum>  (290) 
1

>  <i_i_glide_posenum>  (290) 
23

>  <r_i_glide_eff_state_penalty>  (290) 
0

>  <ligand_id>  (290) 
81

>  <original_smiles>  (290) 
CC1=CC2(C)C3CCC4(C)C2CC=C(CC1O)C4(C)CCC1(C)CCC(C)(C)CC31

>  <smiles>  (290) 
[H]OC1([H])C(C([H])([H])[H])=C([H])C2(C([H])([H])[H])C3([H])C([H])([H])C([H])([H])C4(C([H])([H])[H])C2([H])C([H])([H])C([H])=C(C1([H])[H])C4(C([H])([H])[H])C([H])([H])C([H])([H])C1(C([H])([H])[H])C([H])([H])C([H])([H])C(C([H])([H])[H])(C([H])([H])[H])C([H])([H])C31[H]

$$$$
81:1:0
     RDKit          3D

 76 80  0  0  1  0  0  0  0  0999 V2000
    5.2490  -10.1645    2.9151 C   0  0  0  0  0  0  0  0  0  0  0  0
    4.2293   -9.0587    2.7072 C   0  0  0  0  0  0  0  0  0  0  0  0
    4.3817   -7.7472    3.0151 C   0  0  0  0  0  0  0  0  0  0  0  0
    5.2823   -6.9416    3.9500 C   0  0  1  0  0  0  0  0  0  0  0  0
    6.7593   -7.4147    3.8665 C   0  0  0  0  0  0  0  0  0  0  0  0
    5.2106   -5.4121    3.5180 C   0  0  2  0  0  0  0  0  0  0  0  0
    4.8679   -4.4012    4.6529 C   0  0  0  0  0  0  0  0  0  0  0  0
    3.7932   -4.7905    5.6942 C   0  0  0  0  0  0  0  0  0  0  0  0
    3.4686   -6.3036    5.8261 C   0  0  2  0  0  0  0  0  0  0  0  0
    3.2654   -6.4204    7.3765 C   0  0  0  0  0  0  0  0  0  0  0  0
    4.7777   -7.0780    5.4622 C   0  0  1  0  0  0  0  0  0  0  0  0
    4.6179   -8.5219    6.0086 C   0  0  0  0  0  0  0  0  0  0  0  0
    3.3550   -9.1558    5.4968 C   0  0  0  0  0  0  0  0  0  0  0  0
    2.3659   -8.4652    4.8711 C   0  0  0  0  0  0  0  0  0  0  0  0
    1.7502   -9.2193    3.6901 C   0  0  0  0  0  0  0  0  0  0  0  0
    2.7664   -9.5393    2.5092 C   0  0  1  0  0  0  0  0  0  0  0  0
    2.2463   -9.0475    1.2879 O   0  0  0  0  0  0  0  0  0  0  0  0
    2.1758   -6.9086    5.0398 C   0  0  1  0  0  0  0  0  0  0  0  0
    0.9081   -6.8269    5.9494 C   0  0  0  0  0  0  0  0  0  0  0  0
    1.6830   -6.1902    3.6815 C   0  0  0  0  0  0  0  0  0  0  0  0
    2.1560   -4.8117    3.0910 C   0  0  0  0  0  0  0  0  0  0  0  0
    3.1682   -4.6412    1.8877 C   0  0  1  0  0  0  0  0  0  0  0  0
    2.6236   -5.4600    0.6864 C   0  0  0  0  0  0  0  0  0  0  0  0
    3.0439   -3.1323    1.5202 C   0  0  0  0  0  0  0  0  0  0  0  0
    3.7664   -2.7515    0.2276 C   0  0  0  0  0  0  0  0  0  0  0  0
    5.2771   -3.0551    0.2631 C   0  0  0  0  0  0  0  0  0  0  0  0
    5.6792   -3.7009   -1.0801 C   0  0  0  0  0  0  0  0  0  0  0  0
    6.0499   -1.7206    0.3799 C   0  0  0  0  0  0  0  0  0  0  0  0
    5.6757   -3.9101    1.5050 C   0  0  0  0  0  0  0  0  0  0  0  0
    4.7031   -4.9978    2.0818 C   0  0  1  0  0  0  0  0  0  0  0  0
    5.1121  -10.9213    2.1417 H   0  0  0  0  0  0  0  0  0  0  0  0
    5.1492  -10.6604    3.8804 H   0  0  0  0  0  0  0  0  0  0  0  0
    6.2700   -9.8092    2.7936 H   0  0  0  0  0  0  0  0  0  0  0  0
    3.5579   -7.1736    2.7129 H   0  0  0  0  0  0  0  0  0  0  0  0
    7.4253   -6.7639    4.4327 H   0  0  0  0  0  0  0  0  0  0  0  0
    7.1126   -7.4319    2.8372 H   0  0  0  0  0  0  0  0  0  0  0  0
    6.9074   -8.4062    4.2812 H   0  0  0  0  0  0  0  0  0  0  0  0
    6.2652   -5.1753    3.4122 H   0  0  0  0  0  0  0  0  0  0  0  0
    5.7859   -4.2439    5.2215 H   0  0  0  0  0  0  0  0  0  0  0  0
    4.6326   -3.4179    4.2466 H   0  0  0  0  0  0  0  0  0  0  0  0
    4.2157   -4.4200    6.6313 H   0  0  0  0  0  0  0  0  0  0  0  0
    2.8846   -4.1975    5.6706 H   0  0  0  0  0  0  0  0  0  0  0  0
    2.9431   -7.4035    7.7153 H   0  0  0  0  0  0  0  0  0  0  0  0
    2.5310   -5.7064    7.7511 H   0  0  0  0  0  0  0  0  0  0  0  0
    4.1929   -6.2115    7.9181 H   0  0  0  0  0  0  0  0  0  0  0  0
    5.5749   -6.6400    6.0689 H   0  0  0  0  0  0  0  0  0  0  0  0
    5.4485   -9.1425    5.6842 H   0  0  0  0  0  0  0  0  0  0  0  0
    4.6461   -8.5810    7.0957 H   0  0  0  0  0  0  0  0  0  0  0  0
    3.4437  -10.2152    5.3227 H   0  0  0  0  0  0  0  0  0  0  0  0
    1.4063  -10.1771    4.0842 H   0  0  0  0  0  0  0  0  0  0  0  0
    0.8218   -8.7562    3.3449 H   0  0  0  0  0  0  0  0  0  0  0  0
    2.8092  -10.6166    2.3823 H   0  0  0  0  0  0  0  0  0  0  0  0
    1.5221   -9.5993    1.0136 H   0  0  0  0  0  0  0  0  0  0  0  0
    0.6824   -5.8057    6.2678 H   0  0  0  0  0  0  0  0  0  0  0  0
    0.9831   -7.4460    6.8414 H   0  0  0  0  0  0  0  0  0  0  0  0
    0.0185   -7.2206    5.4536 H   0  0  0  0  0  0  0  0  0  0  0  0
    1.6122   -6.8729    2.8479 H   0  0  0  0  0  0  0  0  0  0  0  0
    0.6139   -6.0141    3.8042 H   0  0  0  0  0  0  0  0  0  0  0  0
    1.2196   -4.4549    2.6603 H   0  0  0  0  0  0  0  0  0  0  0  0
    2.2949   -4.0309    3.8122 H   0  0  0  0  0  0  0  0  0  0  0  0
    3.2875   -5.4060   -0.1793 H   0  0  0  0  0  0  0  0  0  0  0  0
    1.6446   -5.1118    0.3492 H   0  0  0  0  0  0  0  0  0  0  0  0
    2.5368   -6.5240    0.9012 H   0  0  0  0  0  0  0  0  0  0  0  0
    2.0008   -2.8316    1.4133 H   0  0  0  0  0  0  0  0  0  0  0  0
    3.4342   -2.5217    2.3298 H   0  0  0  0  0  0  0  0  0  0  0  0
    3.2908   -3.2367   -0.6251 H   0  0  0  0  0  0  0  0  0  0  0  0
    3.5971   -1.6907    0.0397 H   0  0  0  0  0  0  0  0  0  0  0  0
    6.7551   -3.8489   -1.1610 H   0  0  0  0  0  0  0  0  0  0  0  0
    5.3817   -3.0750   -1.9253 H   0  0  0  0  0  0  0  0  0  0  0  0
    5.2008   -4.6644   -1.2267 H   0  0  0  0  0  0  0  0  0  0  0  0
    7.1305   -1.8827    0.4333 H   0  0  0  0  0  0  0  0  0  0  0  0
    5.7646   -1.1863    1.2910 H   0  0  0  0  0  0  0  0  0  0  0  0
    5.8545   -1.0422   -0.4566 H   0  0  0  0  0  0  0  0  0  0  0  0
    6.6029   -4.4146    1.2509 H   0  0  0  0  0  0  0  0  0  0  0  0
    5.9460   -3.2341    2.3103 H   0  0  0  0  0  0  0  0  0  0  0  0
    4.9097   -5.8481    1.4289 H   0  0  0  0  0  0  0  0  0  0  0  0
  1  2  1  0
  1 31  1  0
  1 32  1  0
  1 33  1  0
  2 16  1  0
  2  3  2  3
  3  4  1  0
  3 34  1  0
  4 11  1  0
  4  5  1  1
  4  6  1  0
  5 35  1  0
  5 36  1  0
  5 37  1  0
  6 30  1  0
  6  7  1  0
  6 38  1  6
  7  8  1  0
  7 39  1  0
  7 40  1  0
  8  9  1  0
  8 41  1  0
  8 42  1  0
  9 18  1  0
  9 10  1  1
  9 11  1  0
 10 43  1  0
 10 44  1  0
 10 45  1  0
 11 12  1  0
 11 46  1  1
 12 13  1  0
 12 47  1  0
 12 48  1  0
 13 14  2  0
 13 49  1  0
 14 15  1  0
 14 18  1  0
 15 16  1  0
 15 50  1  0
 15 51  1  0
 16 17  1  0
 16 52  1  6
 17 53  1  0
 18 19  1  1
 18 20  1  0
 19 54  1  0
 19 55  1  0
 19 56  1  0
 20 21  1  0
 20 57  1  0
 20 58  1  0
 21 22  1  0
 21 59  1  0
 21 60  1  0
 22 30  1  0
 22 23  1  6
 22 24  1  0
 23 61  1  0
 23 62  1  0
 23 63  1  0
 24 25  1  0
 24 64  1  0
 24 65  1  0
 25 26  1  0
 25 66  1  0
 25 67  1  0
 26 27  1  0
 26 28  1  0
 26 29  1  0
 27 68  1  0
 27 69  1  0
 27 70  1  0
 28 71  1  0
 28 72  1  0
 28 73  1  0
 29 30  1  0
 29 74  1  0
 29 75  1  0
 30 76  1  6
M  END
>  <i_m_ct_stereo_status>  (291) 
1

>  <s_m_source_file>  (291) 
/var/tmp/pbs.5076255.sched01/tmpay8aiv4m/132fzfu5vr2.sdf

>  <i_m_source_file_index>  (291) 
1

>  <i_lp_mmshare_version>  (291) 
48012

>  <i_f3d_flags>  (291) 
0

>  <s_epik_input>  (291) 
W0NIM10vQyg9W0NIXS8xKVtDQEhdKFtPSF0pW0NIMl1DMj1bQ0hdW0NIMl1bQ0BASF0zW0NAQF0oW0NIM10pKFtDSDJdW0NIMl00KVtDQEBdMihbQ0gzXSlbQ0gyXVtDSDJdW0NAQF0oW0NIM10pKFtDSDJdW0NIMl1DKFtDSDNdKShbQ0gzXSlbQ0gyXTUpW0NAQEhdNVtDQEBIXTRbQ0BdMTNbQ0gzXQ==

>  <s_epik_cmdline>  (291) 
J2VwaWtfcHl0aG9uJywgJy1waHQnLCAnMi4wJywgJy1waCcsICc3LjAnLCAnLXRuJywgJzgnLCAnLW1hJywgJzIwMCcsICctaW1hZScsICc8aW5maWxlLm1hZT4nLCAnLW9tYWUnLCAnPG91dGZpbGUubWFlPic=

>  <r_lp_tautomer_probability>  (291) 
1

>  <r_epik_Ionization_Penalty>  (291) 
2.31591e-07

>  <r_epik_Ionization_Penalty_Charging>  (291) 
0

>  <r_epik_Ionization_Penalty_Neutral>  (291) 
2.31591e-07

>  <r_epik_State_Penalty>  (291) 
-0

>  <r_epik_Charging_Adjusted_Penalty>  (291) 
0

>  <i_epik_Tot_Q>  (291) 
0

>  <i_epik_Tot_abs_Q>  (291) 
0

>  <s_lp_Force_Field>  (291) 
OPLS3e

>  <r_lp_Energy>  (291) 
183.483

>  <b_lp_Chiralities_Consistent>  (291) 
1

>  <s_lp_Variant>  (291) 
81:0-2

>  <s_i_glide_gridfile>  (291) 
pfpi4k_grid

>  <i_i_glide_lignum>  (291) 
1

>  <i_i_glide_rotatable_bonds>  (291) 
1

>  <r_i_docking_score>  (291) 
-2.75549

>  <r_i_glide_ligand_efficiency>  (291) 
-0.0918497

>  <r_i_glide_ligand_efficiency_sa>  (291) 
-0.285398

>  <r_i_glide_ligand_efficiency_ln>  (291) 
-0.626077

>  <r_i_glide_gscore>  (291) 
-2.75549

>  <r_i_glide_lipo>  (291) 
-0.262222

>  <r_i_glide_hbond>  (291) 
-0.288785

>  <r_i_glide_metal>  (291) 
-0

>  <r_i_glide_rewards>  (291) 
-0.609034

>  <r_i_glide_evdw>  (291) 
-23.4744

>  <r_i_glide_ecoul>  (291) 
-2.81151

>  <r_i_glide_erotb>  (291) 
0

>  <r_i_glide_esite>  (291) 
0

>  <r_i_glide_emodel>  (291) 
-30.5864

>  <r_i_glide_energy>  (291) 
-26.2859

>  <r_i_glide_einternal>  (291) 
0.500784

>  <r_i_glide_intrahb_reward>  (291) 
-0

>  <i_i_glide_confnum>  (291) 
2

>  <i_i_glide_posenum>  (291) 
12

>  <r_i_glide_eff_state_penalty>  (291) 
0

>  <ligand_id>  (291) 
81

>  <original_smiles>  (291) 
CC1=CC2(C)C3CCC4(C)C2CC=C(CC1O)C4(C)CCC1(C)CCC(C)(C)CC31

>  <smiles>  (291) 
[H]OC1([H])C(C([H])([H])[H])=C([H])C2(C([H])([H])[H])C3([H])C([H])([H])C([H])([H])C4(C([H])([H])[H])C2([H])C([H])([H])C([H])=C(C1([H])[H])C4(C([H])([H])[H])C([H])([H])C([H])([H])C1(C([H])([H])[H])C([H])([H])C([H])([H])C(C([H])([H])[H])(C([H])([H])[H])C([H])([H])C31[H]

$$$$
81:1:1
     RDKit          3D

 76 80  0  0  1  0  0  0  0  0999 V2000
    2.5176   -9.4244    1.6957 C   0  0  0  0  0  0  0  0  0  0  0  0
    2.1885   -7.9341    1.7435 C   0  0  0  0  0  0  0  0  0  0  0  0
    3.0486   -6.9464    1.9918 C   0  0  0  0  0  0  0  0  0  0  0  0
    4.4136   -6.8207    2.6729 C   0  0  1  0  0  0  0  0  0  0  0  0
    5.3768   -7.9537    2.2224 C   0  0  0  0  0  0  0  0  0  0  0  0
    5.0437   -5.4317    2.2673 C   0  0  2  0  0  0  0  0  0  0  0  0
    5.5056   -4.5357    3.4460 C   0  0  0  0  0  0  0  0  0  0  0  0
    4.6515   -4.4593    4.7286 C   0  0  0  0  0  0  0  0  0  0  0  0
    3.6414   -5.6099    4.9397 C   0  0  2  0  0  0  0  0  0  0  0  0
    3.7463   -5.8030    6.4941 C   0  0  0  0  0  0  0  0  0  0  0  0
    4.2525   -6.8822    4.2619 C   0  0  1  0  0  0  0  0  0  0  0  0
    3.4999   -8.1087    4.8363 C   0  0  0  0  0  0  0  0  0  0  0  0
    2.0097   -7.9578    4.6548 C   0  0  0  0  0  0  0  0  0  0  0  0
    1.4172   -6.7965    4.3058 C   0  0  0  0  0  0  0  0  0  0  0  0
    0.2575   -6.9815    3.3175 C   0  0  0  0  0  0  0  0  0  0  0  0
    0.6786   -7.6022    1.9248 C   0  0  1  0  0  0  0  0  0  0  0  0
    0.1886   -6.7901    0.8808 O   0  0  0  0  0  0  0  0  0  0  0  0
    2.0884   -5.3815    4.5020 C   0  0  1  0  0  0  0  0  0  0  0  0
    1.2772   -4.7943    5.6943 C   0  0  0  0  0  0  0  0  0  0  0  0
    1.7624   -4.3510    3.3034 C   0  0  0  0  0  0  0  0  0  0  0  0
    2.7328   -3.3337    2.6057 C   0  0  0  0  0  0  0  0  0  0  0  0
    3.4251   -3.5390    1.1959 C   0  0  1  0  0  0  0  0  0  0  0  0
    2.3453   -3.8257    0.1417 C   0  0  0  0  0  0  0  0  0  0  0  0
    4.0021   -2.1305    0.8667 C   0  0  0  0  0  0  0  0  0  0  0  0
    4.5144   -2.0023   -0.5622 C   0  0  0  0  0  0  0  0  0  0  0  0
    5.6080   -3.0353   -0.8992 C   0  0  0  0  0  0  0  0  0  0  0  0
    5.3179   -3.6021   -2.3055 C   0  0  0  0  0  0  0  0  0  0  0  0
    6.9505   -2.3061   -0.9840 C   0  0  0  0  0  0  0  0  0  0  0  0
    5.7780   -4.1157    0.2111 C   0  0  0  0  0  0  0  0  0  0  0  0
    4.5437   -4.6407    1.0041 C   0  0  1  0  0  0  0  0  0  0  0  0
    1.8444   -9.8822    0.9822 H   0  0  0  0  0  0  0  0  0  0  0  0
    2.3802   -9.9279    2.6514 H   0  0  0  0  0  0  0  0  0  0  0  0
    3.5149   -9.6260    1.3160 H   0  0  0  0  0  0  0  0  0  0  0  0
    2.6037   -5.9912    1.9036 H   0  0  0  0  0  0  0  0  0  0  0  0
    6.3881   -7.7974    2.6038 H   0  0  0  0  0  0  0  0  0  0  0  0
    5.4409   -8.0148    1.1374 H   0  0  0  0  0  0  0  0  0  0  0  0
    5.0835   -8.9313    2.5897 H   0  0  0  0  0  0  0  0  0  0  0  0
    6.0143   -5.7330    1.9049 H   0  0  0  0  0  0  0  0  0  0  0  0
    6.4684   -4.9442    3.7672 H   0  0  0  0  0  0  0  0  0  0  0  0
    5.7179   -3.5235    3.1101 H   0  0  0  0  0  0  0  0  0  0  0  0
    5.4038   -4.4676    5.5319 H   0  0  0  0  0  0  0  0  0  0  0  0
    4.1996   -3.4969    4.9236 H   0  0  0  0  0  0  0  0  0  0  0  0
    3.0460   -6.5271    6.9040 H   0  0  0  0  0  0  0  0  0  0  0  0
    3.5845   -4.8705    7.0316 H   0  0  0  0  0  0  0  0  0  0  0  0
    4.7381   -6.1517    6.7806 H   0  0  0  0  0  0  0  0  0  0  0  0
    5.2683   -6.9761    4.6503 H   0  0  0  0  0  0  0  0  0  0  0  0
    3.7943   -9.0097    4.3152 H   0  0  0  0  0  0  0  0  0  0  0  0
    3.7208   -8.3068    5.8817 H   0  0  0  0  0  0  0  0  0  0  0  0
    1.5097   -8.8911    4.4673 H   0  0  0  0  0  0  0  0  0  0  0  0
   -0.4311   -7.6856    3.7797 H   0  0  0  0  0  0  0  0  0  0  0  0
   -0.3341   -6.0742    3.2263 H   0  0  0  0  0  0  0  0  0  0  0  0
    0.1391   -8.5369    1.8103 H   0  0  0  0  0  0  0  0  0  0  0  0
    0.1134   -7.3646    0.1332 H   0  0  0  0  0  0  0  0  0  0  0  0
    1.6840   -3.8454    6.0536 H   0  0  0  0  0  0  0  0  0  0  0  0
    1.2116   -5.4706    6.5406 H   0  0  0  0  0  0  0  0  0  0  0  0
    0.2288   -4.6231    5.4355 H   0  0  0  0  0  0  0  0  0  0  0  0
    1.1717   -4.7928    2.5177 H   0  0  0  0  0  0  0  0  0  0  0  0
    0.9920   -3.6784    3.6908 H   0  0  0  0  0  0  0  0  0  0  0  0
    2.0398   -2.5079    2.4122 H   0  0  0  0  0  0  0  0  0  0  0  0
    3.3972   -2.8147    3.2729 H   0  0  0  0  0  0  0  0  0  0  0  0
    2.7287   -4.0047   -0.8622 H   0  0  0  0  0  0  0  0  0  0  0  0
    1.6841   -2.9676    0.0556 H   0  0  0  0  0  0  0  0  0  0  0  0
    1.7727   -4.7187    0.3791 H   0  0  0  0  0  0  0  0  0  0  0  0
    3.2514   -1.3477    1.0221 H   0  0  0  0  0  0  0  0  0  0  0  0
    4.8126   -1.8956    1.5553 H   0  0  0  0  0  0  0  0  0  0  0  0
    3.6861   -2.0652   -1.2726 H   0  0  0  0  0  0  0  0  0  0  0  0
    4.8842   -0.9926   -0.7015 H   0  0  0  0  0  0  0  0  0  0  0  0
    6.1156   -4.2429   -2.6683 H   0  0  0  0  0  0  0  0  0  0  0  0
    5.2130   -2.8028   -3.0461 H   0  0  0  0  0  0  0  0  0  0  0  0
    4.4020   -4.1771   -2.3338 H   0  0  0  0  0  0  0  0  0  0  0  0
    7.7821   -2.9815   -1.2148 H   0  0  0  0  0  0  0  0  0  0  0  0
    7.1921   -1.8002   -0.0477 H   0  0  0  0  0  0  0  0  0  0  0  0
    6.9028   -1.5646   -1.7756 H   0  0  0  0  0  0  0  0  0  0  0  0
    6.2225   -4.9774   -0.2591 H   0  0  0  0  0  0  0  0  0  0  0  0
    6.5310   -3.7628    0.9329 H   0  0  0  0  0  0  0  0  0  0  0  0
    4.1367   -5.3911    0.3111 H   0  0  0  0  0  0  0  0  0  0  0  0
  1  2  1  0
  1 31  1  0
  1 32  1  0
  1 33  1  0
  2 16  1  0
  2  3  2  3
  3  4  1  0
  3 34  1  0
  4 11  1  0
  4  5  1  6
  4  6  1  0
  5 35  1  0
  5 36  1  0
  5 37  1  0
  6 30  1  0
  6  7  1  0
  6 38  1  6
  7  8  1  0
  7 39  1  0
  7 40  1  0
  8  9  1  0
  8 41  1  0
  8 42  1  0
  9 18  1  0
  9 10  1  1
  9 11  1  0
 10 43  1  0
 10 44  1  0
 10 45  1  0
 11 12  1  0
 11 46  1  1
 12 13  1  0
 12 47  1  0
 12 48  1  0
 13 14  2  0
 13 49  1  0
 14 15  1  0
 14 18  1  0
 15 16  1  0
 15 50  1  0
 15 51  1  0
 16 17  1  0
 16 52  1  6
 17 53  1  0
 18 19  1  1
 18 20  1  0
 19 54  1  0
 19 55  1  0
 19 56  1  0
 20 21  1  0
 20 57  1  0
 20 58  1  0
 21 22  1  0
 21 59  1  0
 21 60  1  0
 22 30  1  0
 22 23  1  6
 22 24  1  0
 23 61  1  0
 23 62  1  0
 23 63  1  0
 24 25  1  0
 24 64  1  0
 24 65  1  0
 25 26  1  0
 25 66  1  0
 25 67  1  0
 26 27  1  0
 26 28  1  0
 26 29  1  0
 27 68  1  0
 27 69  1  0
 27 70  1  0
 28 71  1  0
 28 72  1  0
 28 73  1  0
 29 30  1  0
 29 74  1  0
 29 75  1  0
 30 76  1  6
M  END
>  <i_m_ct_stereo_status>  (292) 
1

>  <s_m_source_file>  (292) 
/var/tmp/pbs.5076255.sched01/tmpay8aiv4m/132fzfu5vr2.sdf

>  <i_m_source_file_index>  (292) 
1

>  <i_lp_mmshare_version>  (292) 
48012

>  <i_f3d_flags>  (292) 
0

>  <s_epik_input>  (292) 
W0NIM10vQyg9W0NIXS8xKVtDQEhdKFtPSF0pW0NIMl1DMj1bQ0hdW0NIMl1bQ0BASF0zW0NAQF0oW0NIM10pKFtDSDJdW0NIMl00KVtDQEBdMihbQ0gzXSlbQ0gyXVtDSDJdW0NAQF0oW0NIM10pKFtDSDJdW0NIMl1DKFtDSDNdKShbQ0gzXSlbQ0gyXTUpW0NAQEhdNVtDQEBIXTRbQ0BdMTNbQ0gzXQ==

>  <s_epik_cmdline>  (292) 
J2VwaWtfcHl0aG9uJywgJy1waHQnLCAnMi4wJywgJy1waCcsICc3LjAnLCAnLXRuJywgJzgnLCAnLW1hJywgJzIwMCcsICctaW1hZScsICc8aW5maWxlLm1hZT4nLCAnLW9tYWUnLCAnPG91dGZpbGUubWFlPic=

>  <r_lp_tautomer_probability>  (292) 
1

>  <r_epik_Ionization_Penalty>  (292) 
2.31591e-07

>  <r_epik_Ionization_Penalty_Charging>  (292) 
0

>  <r_epik_Ionization_Penalty_Neutral>  (292) 
2.31591e-07

>  <r_epik_State_Penalty>  (292) 
-0

>  <r_epik_Charging_Adjusted_Penalty>  (292) 
0

>  <i_epik_Tot_Q>  (292) 
0

>  <i_epik_Tot_abs_Q>  (292) 
0

>  <s_lp_Force_Field>  (292) 
OPLS3e

>  <r_lp_Energy>  (292) 
183.483

>  <b_lp_Chiralities_Consistent>  (292) 
1

>  <s_lp_Variant>  (292) 
81:0-2

>  <s_i_glide_gridfile>  (292) 
pfpi4k_grid

>  <i_i_glide_lignum>  (292) 
1

>  <i_i_glide_rotatable_bonds>  (292) 
1

>  <r_i_docking_score>  (292) 
-2.69599

>  <r_i_glide_ligand_efficiency>  (292) 
-0.0898665

>  <r_i_glide_ligand_efficiency_sa>  (292) 
-0.279236

>  <r_i_glide_ligand_efficiency_ln>  (292) 
-0.612559

>  <r_i_glide_gscore>  (292) 
-2.69599

>  <r_i_glide_lipo>  (292) 
-0.314605

>  <r_i_glide_hbond>  (292) 
-0.110734

>  <r_i_glide_metal>  (292) 
-0

>  <r_i_glide_rewards>  (292) 
-0.609034

>  <r_i_glide_evdw>  (292) 
-24.3335

>  <r_i_glide_ecoul>  (292) 
-2.96632

>  <r_i_glide_erotb>  (292) 
0

>  <r_i_glide_esite>  (292) 
0

>  <r_i_glide_emodel>  (292) 
-31.1953

>  <r_i_glide_energy>  (292) 
-27.2998

>  <r_i_glide_einternal>  (292) 
0.55606

>  <r_i_glide_intrahb_reward>  (292) 
-0

>  <i_i_glide_confnum>  (292) 
2

>  <i_i_glide_posenum>  (292) 
32

>  <r_i_glide_eff_state_penalty>  (292) 
0

>  <ligand_id>  (292) 
81

>  <original_smiles>  (292) 
CC1=CC2(C)C3CCC4(C)C2CC=C(CC1O)C4(C)CCC1(C)CCC(C)(C)CC31

>  <smiles>  (292) 
[H]OC1([H])C(C([H])([H])[H])=C([H])C2(C([H])([H])[H])C3([H])C([H])([H])C([H])([H])C4(C([H])([H])[H])C2([H])C([H])([H])C([H])=C(C1([H])[H])C4(C([H])([H])[H])C([H])([H])C([H])([H])C1(C([H])([H])[H])C([H])([H])C([H])([H])C(C([H])([H])[H])(C([H])([H])[H])C([H])([H])C31[H]

$$$$
81:1:2
     RDKit          3D

 76 80  0  0  1  0  0  0  0  0999 V2000
    1.7875   -9.3803    2.0957 C   0  0  0  0  0  0  0  0  0  0  0  0
    2.0462   -7.9553    2.5458 C   0  0  0  0  0  0  0  0  0  0  0  0
    3.1885   -7.2471    2.3640 C   0  0  0  0  0  0  0  0  0  0  0  0
    4.6510   -7.5927    2.0873 C   0  0  1  0  0  0  0  0  0  0  0  0
    4.7774   -8.6803    0.9890 C   0  0  0  0  0  0  0  0  0  0  0  0
    5.3908   -6.2758    1.5939 C   0  0  2  0  0  0  0  0  0  0  0  0
    6.6913   -5.8994    2.3590 C   0  0  0  0  0  0  0  0  0  0  0  0
    6.7307   -6.0823    3.8942 C   0  0  0  0  0  0  0  0  0  0  0  0
    5.6783   -7.0416    4.5061 C   0  0  2  0  0  0  0  0  0  0  0  0
    6.5345   -7.7333    5.6273 C   0  0  0  0  0  0  0  0  0  0  0  0
    5.3614   -8.1227    3.4199 C   0  0  1  0  0  0  0  0  0  0  0  0
    4.6792   -9.3116    4.1438 C   0  0  0  0  0  0  0  0  0  0  0  0
    3.4803   -8.8450    4.9303 C   0  0  0  0  0  0  0  0  0  0  0  0
    3.2111   -7.5437    5.1837 C   0  0  0  0  0  0  0  0  0  0  0  0
    1.7151   -7.1942    5.0835 C   0  0  0  0  0  0  0  0  0  0  0  0
    1.0832   -7.4273    3.6377 C   0  0  1  0  0  0  0  0  0  0  0  0
    0.4250   -6.2536    3.2037 O   0  0  0  0  0  0  0  0  0  0  0  0
    4.3149   -6.4144    5.1431 C   0  0  1  0  0  0  0  0  0  0  0  0
    4.5254   -6.1014    6.6591 C   0  0  0  0  0  0  0  0  0  0  0  0
    3.7571   -5.0130    4.5668 C   0  0  0  0  0  0  0  0  0  0  0  0
    4.4737   -4.0202    3.5853 C   0  0  0  0  0  0  0  0  0  0  0  0
    4.1554   -3.8803    2.0469 C   0  0  1  0  0  0  0  0  0  0  0  0
    2.6356   -3.6127    1.8918 C   0  0  0  0  0  0  0  0  0  0  0  0
    4.9039   -2.5790    1.6303 C   0  0  0  0  0  0  0  0  0  0  0  0
    4.5774   -2.0950    0.2176 C   0  0  0  0  0  0  0  0  0  0  0  0
    4.9101   -3.1341   -0.8694 C   0  0  0  0  0  0  0  0  0  0  0  0
    3.7371   -3.1845   -1.8749 C   0  0  0  0  0  0  0  0  0  0  0  0
    6.1588   -2.6600   -1.6455 C   0  0  0  0  0  0  0  0  0  0  0  0
    5.2600   -4.5301   -0.2665 C   0  0  0  0  0  0  0  0  0  0  0  0
    4.5686   -5.0433    1.0432 C   0  0  1  0  0  0  0  0  0  0  0  0
    0.7248   -9.4874    1.8878 H   0  0  0  0  0  0  0  0  0  0  0  0
    2.0425  -10.1226    2.8493 H   0  0  0  0  0  0  0  0  0  0  0  0
    2.2907   -9.6224    1.1646 H   0  0  0  0  0  0  0  0  0  0  0  0
    3.1133   -6.2627    2.7153 H   0  0  0  0  0  0  0  0  0  0  0  0
    5.8168   -8.8445    0.7012 H   0  0  0  0  0  0  0  0  0  0  0  0
    4.2261   -8.4056    0.0894 H   0  0  0  0  0  0  0  0  0  0  0  0
    4.4200   -9.6560    1.3070 H   0  0  0  0  0  0  0  0  0  0  0  0
    5.8397   -6.6238    0.6705 H   0  0  0  0  0  0  0  0  0  0  0  0
    7.4829   -6.5439    1.9665 H   0  0  0  0  0  0  0  0  0  0  0  0
    7.0189   -4.8918    2.1102 H   0  0  0  0  0  0  0  0  0  0  0  0
    7.7391   -6.4776    4.0667 H   0  0  0  0  0  0  0  0  0  0  0  0
    6.8036   -5.1698    4.4742 H   0  0  0  0  0  0  0  0  0  0  0  0
    5.9709   -8.4117    6.2657 H   0  0  0  0  0  0  0  0  0  0  0  0
    7.0094   -7.0056    6.2873 H   0  0  0  0  0  0  0  0  0  0  0  0
    7.3434   -8.3286    5.1992 H   0  0  0  0  0  0  0  0  0  0  0  0
    6.3248   -8.5179    3.0910 H   0  0  0  0  0  0  0  0  0  0  0  0
    4.3311  -10.0429    3.4238 H   0  0  0  0  0  0  0  0  0  0  0  0
    5.3485   -9.8693    4.7952 H   0  0  0  0  0  0  0  0  0  0  0  0
    2.6788   -9.5655    4.9511 H   0  0  0  0  0  0  0  0  0  0  0  0
    1.2049   -7.8739    5.7632 H   0  0  0  0  0  0  0  0  0  0  0  0
    1.4924   -6.2140    5.5068 H   0  0  0  0  0  0  0  0  0  0  0  0
    0.2900   -8.1666    3.7446 H   0  0  0  0  0  0  0  0  0  0  0  0
    1.0419   -5.5469    3.2727 H   0  0  0  0  0  0  0  0  0  0  0  0
    5.3488   -5.4049    6.8330 H   0  0  0  0  0  0  0  0  0  0  0  0
    4.7073   -6.9915    7.2589 H   0  0  0  0  0  0  0  0  0  0  0  0
    3.6332   -5.6718    7.1187 H   0  0  0  0  0  0  0  0  0  0  0  0
    2.7286   -5.0702    4.2499 H   0  0  0  0  0  0  0  0  0  0  0  0
    3.5939   -4.3753    5.4363 H   0  0  0  0  0  0  0  0  0  0  0  0
    4.1138   -3.0675    3.9783 H   0  0  0  0  0  0  0  0  0  0  0  0
    5.5213   -3.8725    3.7705 H   0  0  0  0  0  0  0  0  0  0  0  0
    2.3453   -3.5223    0.8463 H   0  0  0  0  0  0  0  0  0  0  0  0
    2.3293   -2.6906    2.3911 H   0  0  0  0  0  0  0  0  0  0  0  0
    2.0246   -4.4191    2.2840 H   0  0  0  0  0  0  0  0  0  0  0  0
    4.6785   -1.7633    2.3192 H   0  0  0  0  0  0  0  0  0  0  0  0
    5.9794   -2.7295    1.7106 H   0  0  0  0  0  0  0  0  0  0  0  0
    3.5306   -1.7942    0.1582 H   0  0  0  0  0  0  0  0  0  0  0  0
    5.1200   -1.1719    0.0352 H   0  0  0  0  0  0  0  0  0  0  0  0
    3.9512   -3.8279   -2.7274 H   0  0  0  0  0  0  0  0  0  0  0  0
    3.5157   -2.1919   -2.2751 H   0  0  0  0  0  0  0  0  0  0  0  0
    2.8222   -3.5472   -1.4156 H   0  0  0  0  0  0  0  0  0  0  0  0
    6.4488   -3.3751   -2.4205 H   0  0  0  0  0  0  0  0  0  0  0  0
    7.0142   -2.5504   -0.9753 H   0  0  0  0  0  0  0  0  0  0  0  0
    5.9975   -1.6966   -2.1336 H   0  0  0  0  0  0  0  0  0  0  0  0
    5.0676   -5.2623   -1.0427 H   0  0  0  0  0  0  0  0  0  0  0  0
    6.3424   -4.5710   -0.1110 H   0  0  0  0  0  0  0  0  0  0  0  0
    3.6385   -5.4525    0.6395 H   0  0  0  0  0  0  0  0  0  0  0  0
  1  2  1  0
  1 31  1  0
  1 32  1  0
  1 33  1  0
  2 16  1  0
  2  3  2  3
  3  4  1  0
  3 34  1  0
  4 11  1  0
  4  5  1  6
  4  6  1  0
  5 35  1  0
  5 36  1  0
  5 37  1  0
  6 30  1  0
  6  7  1  0
  6 38  1  6
  7  8  1  0
  7 39  1  0
  7 40  1  0
  8  9  1  0
  8 41  1  0
  8 42  1  0
  9 18  1  0
  9 10  1  1
  9 11  1  0
 10 43  1  0
 10 44  1  0
 10 45  1  0
 11 12  1  0
 11 46  1  6
 12 13  1  0
 12 47  1  0
 12 48  1  0
 13 14  2  0
 13 49  1  0
 14 15  1  0
 14 18  1  0
 15 16  1  0
 15 50  1  0
 15 51  1  0
 16 17  1  0
 16 52  1  1
 17 53  1  0
 18 19  1  1
 18 20  1  0
 19 54  1  0
 19 55  1  0
 19 56  1  0
 20 21  1  0
 20 57  1  0
 20 58  1  0
 21 22  1  0
 21 59  1  0
 21 60  1  0
 22 30  1  0
 22 23  1  1
 22 24  1  0
 23 61  1  0
 23 62  1  0
 23 63  1  0
 24 25  1  0
 24 64  1  0
 24 65  1  0
 25 26  1  0
 25 66  1  0
 25 67  1  0
 26 27  1  0
 26 28  1  0
 26 29  1  0
 27 68  1  0
 27 69  1  0
 27 70  1  0
 28 71  1  0
 28 72  1  0
 28 73  1  0
 29 30  1  0
 29 74  1  0
 29 75  1  0
 30 76  1  6
M  END
>  <i_m_ct_stereo_status>  (293) 
1

>  <s_m_source_file>  (293) 
/var/tmp/pbs.5076255.sched01/tmpay8aiv4m/132fzfu5vr2.sdf

>  <i_m_source_file_index>  (293) 
1

>  <i_lp_mmshare_version>  (293) 
48012

>  <i_f3d_flags>  (293) 
0

>  <s_epik_input>  (293) 
W0NIM10vQyg9W0NIXS8xKVtDQEhdKFtPSF0pW0NIMl1DMj1bQ0hdW0NIMl1bQ0BASF0zW0NAQF0oW0NIM10pKFtDSDJdW0NIMl00KVtDQEBdMihbQ0gzXSlbQ0gyXVtDSDJdW0NAQF0oW0NIM10pKFtDSDJdW0NIMl1DKFtDSDNdKShbQ0gzXSlbQ0gyXTUpW0NAQEhdNVtDQEBIXTRbQ0BdMTNbQ0gzXQ==

>  <s_epik_cmdline>  (293) 
J2VwaWtfcHl0aG9uJywgJy1waHQnLCAnMi4wJywgJy1waCcsICc3LjAnLCAnLXRuJywgJzgnLCAnLW1hJywgJzIwMCcsICctaW1hZScsICc8aW5maWxlLm1hZT4nLCAnLW9tYWUnLCAnPG91dGZpbGUubWFlPic=

>  <r_lp_tautomer_probability>  (293) 
1

>  <r_epik_Ionization_Penalty>  (293) 
2.31591e-07

>  <r_epik_Ionization_Penalty_Charging>  (293) 
0

>  <r_epik_Ionization_Penalty_Neutral>  (293) 
2.31591e-07

>  <r_epik_State_Penalty>  (293) 
-0

>  <r_epik_Charging_Adjusted_Penalty>  (293) 
0

>  <i_epik_Tot_Q>  (293) 
0

>  <i_epik_Tot_abs_Q>  (293) 
0

>  <s_lp_Force_Field>  (293) 
OPLS3e

>  <r_lp_Energy>  (293) 
183.483

>  <b_lp_Chiralities_Consistent>  (293) 
1

>  <s_lp_Variant>  (293) 
81:0-2

>  <s_i_glide_gridfile>  (293) 
pfpi4k_grid

>  <i_i_glide_lignum>  (293) 
1

>  <i_i_glide_rotatable_bonds>  (293) 
1

>  <r_i_docking_score>  (293) 
-2.67311

>  <r_i_glide_ligand_efficiency>  (293) 
-0.0891038

>  <r_i_glide_ligand_efficiency_sa>  (293) 
-0.276866

>  <r_i_glide_ligand_efficiency_ln>  (293) 
-0.60736

>  <r_i_glide_gscore>  (293) 
-2.67311

>  <r_i_glide_lipo>  (293) 
-0.366461

>  <r_i_glide_hbond>  (293) 
-0.0357184

>  <r_i_glide_metal>  (293) 
-0

>  <r_i_glide_rewards>  (293) 
-0.609034

>  <r_i_glide_evdw>  (293) 
-26.7142

>  <r_i_glide_ecoul>  (293) 
-2.17459

>  <r_i_glide_erotb>  (293) 
0

>  <r_i_glide_esite>  (293) 
0

>  <r_i_glide_emodel>  (293) 
-33.3339

>  <r_i_glide_energy>  (293) 
-28.8888

>  <r_i_glide_einternal>  (293) 
0.0423498

>  <r_i_glide_intrahb_reward>  (293) 
-0

>  <i_i_glide_confnum>  (293) 
1

>  <i_i_glide_posenum>  (293) 
1

>  <r_i_glide_eff_state_penalty>  (293) 
0

>  <ligand_id>  (293) 
81

>  <original_smiles>  (293) 
CC1=CC2(C)C3CCC4(C)C2CC=C(CC1O)C4(C)CCC1(C)CCC(C)(C)CC31

>  <smiles>  (293) 
[H]OC1([H])C(C([H])([H])[H])=C([H])C2(C([H])([H])[H])C3([H])C([H])([H])C([H])([H])C4(C([H])([H])[H])C2([H])C([H])([H])C([H])=C(C1([H])[H])C4(C([H])([H])[H])C([H])([H])C([H])([H])C1(C([H])([H])[H])C([H])([H])C([H])([H])C(C([H])([H])[H])(C([H])([H])[H])C([H])([H])C31[H]

$$$$
82:0:0
     RDKit          3D

 83 89  0  0  1  0  0  0  0  0999 V2000
   -3.0275    2.7371    6.9814 C   0  0  0  0  0  0  0  0  0  0  0  0
   -1.9558    2.3132    8.0055 C   0  0  2  0  0  0  0  0  0  0  0  0
   -2.3197    2.8522    9.4074 C   0  0  0  0  0  0  0  0  0  0  0  0
   -1.2969    2.4052   10.4639 C   0  0  0  0  0  0  0  0  0  0  0  0
    0.1538    2.7329   10.0677 C   0  0  0  0  0  0  0  0  0  0  0  0
    0.5113    2.2055    8.6590 C   0  0  2  0  0  0  0  0  0  0  0  0
    1.9779    2.5555    8.3051 C   0  0  0  0  0  0  0  0  0  0  0  0
    2.3549    2.0066    6.9104 C   0  0  0  0  0  0  0  0  0  0  0  0
    1.3553    2.4213    5.7946 C   0  0  1  0  0  0  0  0  0  0  0  0
    1.7668    1.8767    4.4118 C   0  0  2  0  0  0  0  0  0  0  0  0
    1.1339    2.6360    3.2238 C   0  0  0  0  0  0  0  0  0  0  0  0
    1.2147    1.6902    2.0256 C   0  0  0  0  0  0  0  0  0  0  0  0
    1.6026    0.3117    2.5851 C   0  0  1  0  0  0  0  0  0  0  0  0
    3.0131   -0.0403    2.0716 C   0  0  0  0  0  0  0  0  0  0  0  0
    4.0053    0.3326    2.7134 O   0  0  0  0  0  0  0  0  0  0  0  0
    3.0952   -0.7586    0.9507 N   0  0  0  0  0  0  0  0  0  0  0  0
    4.3299   -1.2984    0.3948 C   0  0  2  0  0  0  0  0  0  0  0  0
    4.0734   -1.8633   -1.0142 C   0  0  1  0  0  0  0  0  0  0  0  0
    5.4014   -2.3434   -1.6268 C   0  0  0  0  0  0  0  0  0  0  0  0
    6.0028   -3.4594   -0.7418 C   0  0  1  0  0  0  0  0  0  0  0  0
    6.2747   -2.8974    0.6735 C   0  0  0  0  0  0  0  0  0  0  0  0
    4.9500   -2.4088    1.2901 C   0  0  2  0  0  0  0  0  0  0  0  0
    3.9661   -3.5968    1.4011 C   0  0  0  0  0  0  0  0  0  0  0  0
    3.6969   -4.1502   -0.0207 C   0  0  2  0  0  0  0  0  0  0  0  0
    2.7715   -5.2108    0.0801 O   0  0  0  0  0  0  0  0  0  0  0  0
    5.0140   -4.6422   -0.6416 C   0  0  0  0  0  0  0  0  0  0  0  0
    3.0844   -3.0493   -0.9144 C   0  0  0  0  0  0  0  0  0  0  0  0
    1.4410    0.3986    4.1450 C   0  0  1  0  0  0  0  0  0  0  0  0
    2.3698   -0.5870    4.9197 C   0  0  0  0  0  0  0  0  0  0  0  0
   -0.0218    0.0861    4.5468 C   0  0  0  0  0  0  0  0  0  0  0  0
   -0.3617    0.5485    5.9867 C   0  0  0  0  0  0  0  0  0  0  0  0
   -0.1072    2.0708    6.1748 C   0  0  1  0  0  0  0  0  0  0  0  0
   -0.4990    2.6957    7.5706 C   0  0  1  0  0  0  0  0  0  0  0  0
   -0.4059    4.2530    7.4377 C   0  0  0  0  0  0  0  0  0  0  0  0
   -3.0143    3.8153    6.8035 H   0  0  0  0  0  0  0  0  0  0  0  0
   -4.0456    2.4855    7.3039 H   0  0  0  0  0  0  0  0  0  0  0  0
   -2.8950    2.2574    6.0059 H   0  0  0  0  0  0  0  0  0  0  0  0
   -2.0173    1.2386    8.0889 H   0  0  0  0  0  0  0  0  0  0  0  0
   -2.3729    3.9411    9.3861 H   0  0  0  0  0  0  0  0  0  0  0  0
   -3.3166    2.5015    9.7065 H   0  0  0  0  0  0  0  0  0  0  0  0
   -1.5291    2.8840   11.4191 H   0  0  0  0  0  0  0  0  0  0  0  0
   -1.3878    1.3334   10.6444 H   0  0  0  0  0  0  0  0  0  0  0  0
    0.3079    3.8076   10.0982 H   0  0  0  0  0  0  0  0  0  0  0  0
    0.8332    2.3166   10.8151 H   0  0  0  0  0  0  0  0  0  0  0  0
    0.4494    1.1193    8.7251 H   0  0  0  0  0  0  0  0  0  0  0  0
    2.1346    3.6341    8.3623 H   0  0  0  0  0  0  0  0  0  0  0  0
    2.6586    2.1108    9.0344 H   0  0  0  0  0  0  0  0  0  0  0  0
    3.3551    2.3806    6.6455 H   0  0  0  0  0  0  0  0  0  0  0  0
    2.4217    0.9161    6.9852 H   0  0  0  0  0  0  0  0  0  0  0  0
    1.4165    3.4974    5.6719 H   0  0  0  0  0  0  0  0  0  0  0  0
    2.8379    2.0476    4.2934 H   0  0  0  0  0  0  0  0  0  0  0  0
    0.0804    2.8959    3.3895 H   0  0  0  0  0  0  0  0  0  0  0  0
    1.6409    3.5865    3.0090 H   0  0  0  0  0  0  0  0  0  0  0  0
    0.2654    1.6468    1.4977 H   0  0  0  0  0  0  0  0  0  0  0  0
    1.9375    2.0814    1.3125 H   0  0  0  0  0  0  0  0  0  0  0  0
    0.9349   -0.4545    2.1868 H   0  0  0  0  0  0  0  0  0  0  0  0
    2.2236   -0.9927    0.4531 H   0  0  0  0  0  0  0  0  0  0  0  0
    5.0370   -0.4720    0.3155 H   0  0  0  0  0  0  0  0  0  0  0  0
    3.6462   -1.0834   -1.6423 H   0  0  0  0  0  0  0  0  0  0  0  0
    5.2409   -2.7166   -2.6395 H   0  0  0  0  0  0  0  0  0  0  0  0
    6.1036   -1.5079   -1.7079 H   0  0  0  0  0  0  0  0  0  0  0  0
    6.9400   -3.8061   -1.1829 H   0  0  0  0  0  0  0  0  0  0  0  0
    6.7284   -3.6682    1.2999 H   0  0  0  0  0  0  0  0  0  0  0  0
    7.0029   -2.0811    0.6269 H   0  0  0  0  0  0  0  0  0  0  0  0
    5.1704   -2.0378    2.2885 H   0  0  0  0  0  0  0  0  0  0  0  0
    4.3812   -4.3779    2.0403 H   0  0  0  0  0  0  0  0  0  0  0  0
    3.0343   -3.2810    1.8768 H   0  0  0  0  0  0  0  0  0  0  0  0
    2.6813   -5.5725   -0.7999 H   0  0  0  0  0  0  0  0  0  0  0  0
    4.8384   -5.0432   -1.6332 H   0  0  0  0  0  0  0  0  0  0  0  0
    5.4414   -5.4400   -0.0433 H   0  0  0  0  0  0  0  0  0  0  0  0
    2.1384   -2.7179   -0.4876 H   0  0  0  0  0  0  0  0  0  0  0  0
    2.8509   -3.4261   -1.9109 H   0  0  0  0  0  0  0  0  0  0  0  0
    2.4397   -1.5609    4.4186 H   0  0  0  0  0  0  0  0  0  0  0  0
    2.0375   -0.7697    5.9432 H   0  0  0  0  0  0  0  0  0  0  0  0
    3.3951   -0.2005    4.9737 H   0  0  0  0  0  0  0  0  0  0  0  0
   -0.7121    0.5742    3.8643 H   0  0  0  0  0  0  0  0  0  0  0  0
   -0.2218   -0.9802    4.4307 H   0  0  0  0  0  0  0  0  0  0  0  0
   -1.4090    0.2844    6.1710 H   0  0  0  0  0  0  0  0  0  0  0  0
    0.1996   -0.0422    6.7217 H   0  0  0  0  0  0  0  0  0  0  0  0
   -0.7388    2.5373    5.4315 H   0  0  0  0  0  0  0  0  0  0  0  0
    0.6172    4.6184    7.2575 H   0  0  0  0  0  0  0  0  0  0  0  0
   -0.7576    4.7789    8.3334 H   0  0  0  0  0  0  0  0  0  0  0  0
   -1.0082    4.6271    6.6048 H   0  0  0  0  0  0  0  0  0  0  0  0
  1  2  1  0
  1 35  1  0
  1 36  1  0
  1 37  1  0
  2 33  1  0
  2  3  1  0
  2 38  1  1
  3  4  1  0
  3 39  1  0
  3 40  1  0
  4  5  1  0
  4 41  1  0
  4 42  1  0
  5  6  1  0
  5 43  1  0
  5 44  1  0
  6 33  1  0
  6  7  1  0
  6 45  1  1
  7  8  1  0
  7 46  1  0
  7 47  1  0
  8  9  1  0
  8 48  1  0
  8 49  1  0
  9 32  1  0
  9 10  1  0
  9 50  1  6
 10 28  1  0
 10 11  1  0
 10 51  1  6
 11 12  1  0
 11 52  1  0
 11 53  1  0
 12 13  1  0
 12 54  1  0
 12 55  1  0
 13 14  1  0
 13 28  1  0
 13 56  1  6
 14 15  2  0
 14 16  1  0
 16 17  1  0
 16 57  1  0
 17 22  1  0
 17 18  1  0
 17 58  1  6
 18 27  1  0
 18 19  1  0
 18 59  1  6
 19 20  1  0
 19 60  1  0
 19 61  1  0
 20 26  1  0
 20 21  1  0
 20 62  1  6
 21 22  1  0
 21 63  1  0
 21 64  1  0
 22 23  1  0
 22 65  1  1
 23 24  1  0
 23 66  1  0
 23 67  1  0
 24 25  1  1
 24 26  1  0
 24 27  1  0
 25 68  1  0
 26 69  1  0
 26 70  1  0
 27 71  1  0
 27 72  1  0
 28 29  1  1
 28 30  1  0
 29 73  1  0
 29 74  1  0
 29 75  1  0
 30 31  1  0
 30 76  1  0
 30 77  1  0
 31 32  1  0
 31 78  1  0
 31 79  1  0
 32 33  1  0
 32 80  1  6
 33 34  1  6
 34 81  1  0
 34 82  1  0
 34 83  1  0
M  END
>  <i_m_ct_stereo_status>  (294) 
1

>  <s_m_source_file>  (294) 
/var/tmp/pbs.5076255.sched01/tmpay8aiv4m/132fzfu5vr2.sdf

>  <i_m_source_file_index>  (294) 
2

>  <i_lp_mmshare_version>  (294) 
48012

>  <i_f3d_flags>  (294) 
0

>  <s_epik_input>  (294) 
W0NIM11bQ0BASF0xW0NIMl1bQ0gyXVtDSDJdW0NASF0oW0NIMl1bQ0gyXTIpW0NAQF0xKFtDSDNdKVtDQEhdKFtDSDJdW0NIMl0zKVtDQEBIXTJbQ0BASF0oW0NAQF0zNFtDSDNdKVtDSDJdW0NIMl1bQ0BIXTRDKD1PKVtOSF1bQ0BIXShbQ0BIXShbQ0gyXTUpW0NIMl1bQ0BASF0oW0NIMl02KVtDSDJdNylbQ0BIXTZbQ0gyXVtDQEBdNTdbT0hd

>  <s_epik_cmdline>  (294) 
J2VwaWtfcHl0aG9uJywgJy1waHQnLCAnMi4wJywgJy1waCcsICc3LjAnLCAnLXRuJywgJzgnLCAnLW1hJywgJzIwMCcsICctaW1hZScsICc8aW5maWxlLm1hZT4nLCAnLW9tYWUnLCAnPG91dGZpbGUubWFlPic=

>  <r_lp_tautomer_probability>  (294) 
1

>  <r_epik_Ionization_Penalty>  (294) 
1.88715e-06

>  <r_epik_Ionization_Penalty_Charging>  (294) 
0

>  <r_epik_Ionization_Penalty_Neutral>  (294) 
1.88715e-06

>  <r_epik_State_Penalty>  (294) 
-0

>  <r_epik_Charging_Adjusted_Penalty>  (294) 
0

>  <i_epik_Tot_Q>  (294) 
0

>  <i_epik_Tot_abs_Q>  (294) 
0

>  <s_lp_Force_Field>  (294) 
OPLS3e

>  <r_lp_Energy>  (294) 
42.6444

>  <b_lp_Chiralities_Consistent>  (294) 
1

>  <s_lp_Variant>  (294) 
82:0-1

>  <s_i_glide_gridfile>  (294) 
pfpi4k_grid

>  <i_i_glide_lignum>  (294) 
2

>  <i_i_glide_rotatable_bonds>  (294) 
4

>  <r_i_docking_score>  (294) 
-3.40807

>  <r_i_glide_ligand_efficiency>  (294) 
-0.100237

>  <r_i_glide_ligand_efficiency_sa>  (294) 
-0.32473

>  <r_i_glide_ligand_efficiency_ln>  (294) 
-0.752937

>  <r_i_glide_gscore>  (294) 
-3.40807

>  <r_i_glide_lipo>  (294) 
-0.399083

>  <r_i_glide_hbond>  (294) 
-0.456

>  <r_i_glide_metal>  (294) 
-0

>  <r_i_glide_rewards>  (294) 
-0.220048

>  <r_i_glide_evdw>  (294) 
-34.2652

>  <r_i_glide_ecoul>  (294) 
-5.5497

>  <r_i_glide_erotb>  (294) 
0.276794

>  <r_i_glide_esite>  (294) 
-0.0640154

>  <r_i_glide_emodel>  (294) 
-46.7364

>  <r_i_glide_energy>  (294) 
-39.8149

>  <r_i_glide_einternal>  (294) 
2.18664

>  <r_i_glide_intrahb_reward>  (294) 
-0

>  <i_i_glide_confnum>  (294) 
4

>  <i_i_glide_posenum>  (294) 
18

>  <r_i_glide_eff_state_penalty>  (294) 
0

>  <ligand_id>  (294) 
82

>  <original_smiles>  (294) 
CC1CCCC2CCC3C4CCC(C(=O)NC5C6CC7CC5CC(O)(C7)C6)C4(C)CCC3C12C

>  <smiles>  (294) 
[H]OC12C([H])([H])C3([H])C([H])([H])C([H])(C1([H])[H])C([H])(N([H])C(=O)C1([H])C([H])([H])C([H])([H])C4([H])C5([H])C([H])([H])C([H])([H])C6([H])C([H])([H])C([H])([H])C([H])([H])C([H])(C([H])([H])[H])C6(C([H])([H])[H])C5([H])C([H])([H])C([H])([H])C14C([H])([H])[H])C([H])(C3([H])[H])C2([H])[H]

$$$$
82:0:1
     RDKit          3D

 83 89  0  0  1  0  0  0  0  0999 V2000
   -3.0585    3.0205    6.4857 C   0  0  0  0  0  0  0  0  0  0  0  0
   -2.1201    2.5953    7.6308 C   0  0  2  0  0  0  0  0  0  0  0  0
   -2.5742    3.2325    8.9605 C   0  0  0  0  0  0  0  0  0  0  0  0
   -1.6726    2.7970   10.1312 C   0  0  0  0  0  0  0  0  0  0  0  0
   -0.1754    3.0204    9.8399 C   0  0  0  0  0  0  0  0  0  0  0  0
    0.2720    2.3996    8.5024 C   0  0  2  0  0  0  0  0  0  0  0  0
    1.7747    2.6531    8.2465 C   0  0  0  0  0  0  0  0  0  0  0  0
    2.2351    2.0272    6.9195 C   0  0  0  0  0  0  0  0  0  0  0  0
    1.3534    2.4235    5.7069 C   0  0  1  0  0  0  0  0  0  0  0  0
    1.8473    1.7971    4.3788 C   0  0  2  0  0  0  0  0  0  0  0  0
    1.3592    2.5247    3.1083 C   0  0  0  0  0  0  0  0  0  0  0  0
    1.4826    1.5042    1.9729 C   0  0  0  0  0  0  0  0  0  0  0  0
    1.7555    0.1398    2.6298 C   0  0  1  0  0  0  0  0  0  0  0  0
    3.1835   -0.3075    2.2701 C   0  0  0  0  0  0  0  0  0  0  0  0
    4.1607    0.1070    2.8920 O   0  0  0  0  0  0  0  0  0  0  0  0
    3.2892   -1.1954    1.2690 N   0  0  0  0  0  0  0  0  0  0  0  0
    4.4845   -1.9679    0.9611 C   0  0  2  0  0  0  0  0  0  0  0  0
    4.4316   -2.4583   -0.5025 C   0  0  1  0  0  0  0  0  0  0  0  0
    5.7380   -3.2236   -0.8282 C   0  0  0  0  0  0  0  0  0  0  0  0
    5.8600   -4.4453    0.1061 C   0  0  1  0  0  0  0  0  0  0  0  0
    5.9188   -3.9661    1.5699 C   0  0  0  0  0  0  0  0  0  0  0  0
    4.6205   -3.1932    1.9050 C   0  0  2  0  0  0  0  0  0  0  0  0
    3.4099   -4.1366    1.7266 C   0  0  0  0  0  0  0  0  0  0  0  0
    3.3522   -4.6065    0.2556 C   0  0  2  0  0  0  0  0  0  0  0  0
    2.2377   -5.4487    0.0788 O   0  0  0  0  0  0  0  0  0  0  0  0
    4.6484   -5.3768   -0.0850 C   0  0  0  0  0  0  0  0  0  0  0  0
    3.2138   -3.3901   -0.6895 C   0  0  0  0  0  0  0  0  0  0  0  0
    1.4650    0.3160    4.1665 C   0  0  1  0  0  0  0  0  0  0  0  0
    2.2717   -0.6655    5.0479 C   0  0  0  0  0  0  0  0  0  0  0  0
   -0.0387    0.1053    4.4546 C   0  0  0  0  0  0  0  0  0  0  0  0
   -0.4714    0.6503    5.8446 C   0  0  0  0  0  0  0  0  0  0  0  0
   -0.1478    2.1714    5.9845 C   0  0  1  0  0  0  0  0  0  0  0  0
   -0.6151    2.8844    7.3061 C   0  0  1  0  0  0  0  0  0  0  0  0
   -0.4258    4.4187    7.1124 C   0  0  0  0  0  0  0  0  0  0  0  0
   -2.9624    4.0818    6.2710 H   0  0  0  0  0  0  0  0  0  0  0  0
   -4.1102    2.8575    6.7394 H   0  0  0  0  0  0  0  0  0  0  0  0
   -2.8749    2.4922    5.5535 H   0  0  0  0  0  0  0  0  0  0  0  0
   -2.2581    1.5256    7.7645 H   0  0  0  0  0  0  0  0  0  0  0  0
   -2.5642    4.3186    8.8867 H   0  0  0  0  0  0  0  0  0  0  0  0
   -3.6098    2.9542    9.1926 H   0  0  0  0  0  0  0  0  0  0  0  0
   -1.9570    3.3287   11.0420 H   0  0  0  0  0  0  0  0  0  0  0  0
   -1.8416    1.7429   10.3516 H   0  0  0  0  0  0  0  0  0  0  0  0
    0.0353    4.0856    9.8316 H   0  0  0  0  0  0  0  0  0  0  0  0
    0.4151    2.6108   10.6680 H   0  0  0  0  0  0  0  0  0  0  0  0
    0.1430    1.3199    8.6140 H   0  0  0  0  0  0  0  0  0  0  0  0
    1.9882    3.7233    8.2697 H   0  0  0  0  0  0  0  0  0  0  0  0
    2.3696    2.2192    9.0550 H   0  0  0  0  0  0  0  0  0  0  0  0
    3.2673    2.3243    6.7242 H   0  0  0  0  0  0  0  0  0  0  0  0
    2.2345    0.9389    7.0560 H   0  0  0  0  0  0  0  0  0  0  0  0
    1.4829    3.4913    5.5416 H   0  0  0  0  0  0  0  0  0  0  0  0
    2.9304    1.8988    4.3542 H   0  0  0  0  0  0  0  0  0  0  0  0
    0.3161    2.8443    3.1732 H   0  0  0  0  0  0  0  0  0  0  0  0
    1.9356    3.4293    2.8948 H   0  0  0  0  0  0  0  0  0  0  0  0
    0.5760    1.4840    1.3685 H   0  0  0  0  0  0  0  0  0  0  0  0
    2.2828    1.8030    1.2940 H   0  0  0  0  0  0  0  0  0  0  0  0
    1.0687   -0.6021    2.2138 H   0  0  0  0  0  0  0  0  0  0  0  0
    2.4560   -1.4122    0.7406 H   0  0  0  0  0  0  0  0  0  0  0  0
    5.3585   -1.3296    1.0769 H   0  0  0  0  0  0  0  0  0  0  0  0
    4.3443   -1.5973   -1.1663 H   0  0  0  0  0  0  0  0  0  0  0  0
    5.7365   -3.5404   -1.8724 H   0  0  0  0  0  0  0  0  0  0  0  0
    6.5992   -2.5661   -0.7011 H   0  0  0  0  0  0  0  0  0  0  0  0
    6.7755   -4.9874   -0.1250 H   0  0  0  0  0  0  0  0  0  0  0  0
    6.0385   -4.8186    2.2408 H   0  0  0  0  0  0  0  0  0  0  0  0
    6.7922   -3.3306    1.7204 H   0  0  0  0  0  0  0  0  0  0  0  0
    4.6756   -2.8639    2.9432 H   0  0  0  0  0  0  0  0  0  0  0  0
    3.4959   -4.9945    2.3957 H   0  0  0  0  0  0  0  0  0  0  0  0
    2.4823   -3.6319    2.0033 H   0  0  0  0  0  0  0  0  0  0  0  0
    2.2787   -5.7643   -0.8199 H   0  0  0  0  0  0  0  0  0  0  0  0
    4.6135   -5.7330   -1.1153 H   0  0  0  0  0  0  0  0  0  0  0  0
    4.7463   -6.2597    0.5479 H   0  0  0  0  0  0  0  0  0  0  0  0
    2.2826   -2.8605   -0.4808 H   0  0  0  0  0  0  0  0  0  0  0  0
    3.1450   -3.7073   -1.7300 H   0  0  0  0  0  0  0  0  0  0  0  0
    2.3190   -1.6650    4.6097 H   0  0  0  0  0  0  0  0  0  0  0  0
    1.8601   -0.7797    6.0548 H   0  0  0  0  0  0  0  0  0  0  0  0
    3.2995   -0.3351    5.1828 H   0  0  0  0  0  0  0  0  0  0  0  0
   -0.6529    0.5911    3.6984 H   0  0  0  0  0  0  0  0  0  0  0  0
   -0.2910   -0.9578    4.3768 H   0  0  0  0  0  0  0  0  0  0  0  0
   -1.5425    0.4550    5.9516 H   0  0  0  0  0  0  0  0  0  0  0  0
   -0.0004    0.0734    6.6448 H   0  0  0  0  0  0  0  0  0  0  0  0
   -0.6925    2.6308    5.1631 H   0  0  0  0  0  0  0  0  0  0  0  0
    0.6167    4.7247    7.0007 H   0  0  0  0  0  0  0  0  0  0  0  0
   -0.8169    5.0075    7.9395 H   0  0  0  0  0  0  0  0  0  0  0  0
   -0.9290    4.7806    6.2157 H   0  0  0  0  0  0  0  0  0  0  0  0
  1  2  1  0
  1 35  1  0
  1 36  1  0
  1 37  1  0
  2 33  1  0
  2  3  1  0
  2 38  1  1
  3  4  1  0
  3 39  1  0
  3 40  1  0
  4  5  1  0
  4 41  1  0
  4 42  1  0
  5  6  1  0
  5 43  1  0
  5 44  1  0
  6 33  1  0
  6  7  1  0
  6 45  1  1
  7  8  1  0
  7 46  1  0
  7 47  1  0
  8  9  1  0
  8 48  1  0
  8 49  1  0
  9 32  1  0
  9 10  1  0
  9 50  1  6
 10 28  1  0
 10 11  1  0
 10 51  1  1
 11 12  1  0
 11 52  1  0
 11 53  1  0
 12 13  1  0
 12 54  1  0
 12 55  1  0
 13 14  1  0
 13 28  1  0
 13 56  1  6
 14 15  2  0
 14 16  1  0
 16 17  1  0
 16 57  1  0
 17 22  1  0
 17 18  1  0
 17 58  1  6
 18 27  1  0
 18 19  1  0
 18 59  1  6
 19 20  1  0
 19 60  1  0
 19 61  1  0
 20 26  1  0
 20 21  1  0
 20 62  1  6
 21 22  1  0
 21 63  1  0
 21 64  1  0
 22 23  1  0
 22 65  1  1
 23 24  1  0
 23 66  1  0
 23 67  1  0
 24 25  1  1
 24 26  1  0
 24 27  1  0
 25 68  1  0
 26 69  1  0
 26 70  1  0
 27 71  1  0
 27 72  1  0
 28 29  1  1
 28 30  1  0
 29 73  1  0
 29 74  1  0
 29 75  1  0
 30 31  1  0
 30 76  1  0
 30 77  1  0
 31 32  1  0
 31 78  1  0
 31 79  1  0
 32 33  1  0
 32 80  1  6
 33 34  1  6
 34 81  1  0
 34 82  1  0
 34 83  1  0
M  END
>  <i_m_ct_stereo_status>  (295) 
1

>  <s_m_source_file>  (295) 
/var/tmp/pbs.5076255.sched01/tmpay8aiv4m/132fzfu5vr2.sdf

>  <i_m_source_file_index>  (295) 
2

>  <i_lp_mmshare_version>  (295) 
48012

>  <i_f3d_flags>  (295) 
0

>  <s_epik_input>  (295) 
W0NIM11bQ0BASF0xW0NIMl1bQ0gyXVtDSDJdW0NASF0oW0NIMl1bQ0gyXTIpW0NAQF0xKFtDSDNdKVtDQEhdKFtDSDJdW0NIMl0zKVtDQEBIXTJbQ0BASF0oW0NAQF0zNFtDSDNdKVtDSDJdW0NIMl1bQ0BIXTRDKD1PKVtOSF1bQ0BIXShbQ0BIXShbQ0gyXTUpW0NIMl1bQ0BASF0oW0NIMl02KVtDSDJdNylbQ0BIXTZbQ0gyXVtDQEBdNTdbT0hd

>  <s_epik_cmdline>  (295) 
J2VwaWtfcHl0aG9uJywgJy1waHQnLCAnMi4wJywgJy1waCcsICc3LjAnLCAnLXRuJywgJzgnLCAnLW1hJywgJzIwMCcsICctaW1hZScsICc8aW5maWxlLm1hZT4nLCAnLW9tYWUnLCAnPG91dGZpbGUubWFlPic=

>  <r_lp_tautomer_probability>  (295) 
1

>  <r_epik_Ionization_Penalty>  (295) 
1.88715e-06

>  <r_epik_Ionization_Penalty_Charging>  (295) 
0

>  <r_epik_Ionization_Penalty_Neutral>  (295) 
1.88715e-06

>  <r_epik_State_Penalty>  (295) 
-0

>  <r_epik_Charging_Adjusted_Penalty>  (295) 
0

>  <i_epik_Tot_Q>  (295) 
0

>  <i_epik_Tot_abs_Q>  (295) 
0

>  <s_lp_Force_Field>  (295) 
OPLS3e

>  <r_lp_Energy>  (295) 
42.6444

>  <b_lp_Chiralities_Consistent>  (295) 
1

>  <s_lp_Variant>  (295) 
82:0-1

>  <s_i_glide_gridfile>  (295) 
pfpi4k_grid

>  <i_i_glide_lignum>  (295) 
2

>  <i_i_glide_rotatable_bonds>  (295) 
4

>  <r_i_docking_score>  (295) 
-3.22413

>  <r_i_glide_ligand_efficiency>  (295) 
-0.0948274

>  <r_i_glide_ligand_efficiency_sa>  (295) 
-0.307204

>  <r_i_glide_ligand_efficiency_ln>  (295) 
-0.712301

>  <r_i_glide_gscore>  (295) 
-3.22413

>  <r_i_glide_lipo>  (295) 
-0.494456

>  <r_i_glide_hbond>  (295) 
-0.352031

>  <r_i_glide_metal>  (295) 
-0

>  <r_i_glide_rewards>  (295) 
-0.220048

>  <r_i_glide_evdw>  (295) 
-32.4831

>  <r_i_glide_ecoul>  (295) 
-5.12238

>  <r_i_glide_erotb>  (295) 
0.276794

>  <r_i_glide_esite>  (295) 
-0.0418808

>  <r_i_glide_emodel>  (295) 
-44.6607

>  <r_i_glide_energy>  (295) 
-37.6055

>  <r_i_glide_einternal>  (295) 
1.32964

>  <r_i_glide_intrahb_reward>  (295) 
-0

>  <i_i_glide_confnum>  (295) 
1

>  <i_i_glide_posenum>  (295) 
35

>  <r_i_glide_eff_state_penalty>  (295) 
0

>  <ligand_id>  (295) 
82

>  <original_smiles>  (295) 
CC1CCCC2CCC3C4CCC(C(=O)NC5C6CC7CC5CC(O)(C7)C6)C4(C)CCC3C12C

>  <smiles>  (295) 
[H]OC12C([H])([H])C3([H])C([H])([H])C([H])(C1([H])[H])C([H])(N([H])C(=O)C1([H])C([H])([H])C([H])([H])C4([H])C5([H])C([H])([H])C([H])([H])C6([H])C([H])([H])C([H])([H])C([H])([H])C([H])(C([H])([H])[H])C6(C([H])([H])[H])C5([H])C([H])([H])C([H])([H])C14C([H])([H])[H])C([H])(C3([H])[H])C2([H])[H]

$$$$
82:0:2
     RDKit          3D

 83 89  0  0  1  0  0  0  0  0999 V2000
   -3.0499    2.9923    6.5420 C   0  0  0  0  0  0  0  0  0  0  0  0
   -2.1029    2.5696    7.6781 C   0  0  2  0  0  0  0  0  0  0  0  0
   -2.5420    3.2109    9.0120 C   0  0  0  0  0  0  0  0  0  0  0  0
   -1.6327    2.7750   10.1745 C   0  0  0  0  0  0  0  0  0  0  0  0
   -0.1381    2.9950    9.8691 C   0  0  0  0  0  0  0  0  0  0  0  0
    0.2952    2.3690    8.5290 C   0  0  2  0  0  0  0  0  0  0  0  0
    1.7968    2.6142    8.2604 C   0  0  0  0  0  0  0  0  0  0  0  0
    2.2442    1.9830    6.9311 C   0  0  0  0  0  0  0  0  0  0  0  0
    1.3539    2.3799    5.7250 C   0  0  1  0  0  0  0  0  0  0  0  0
    1.8314    1.7496    4.3939 C   0  0  2  0  0  0  0  0  0  0  0  0
    1.3384    2.4739    3.1238 C   0  0  0  0  0  0  0  0  0  0  0  0
    1.4530    1.4515    1.9900 C   0  0  0  0  0  0  0  0  0  0  0  0
    1.7074    0.0832    2.6506 C   0  0  1  0  0  0  0  0  0  0  0  0
    3.1276   -0.4086    2.3032 C   0  0  0  0  0  0  0  0  0  0  0  0
    4.1227    0.1132    2.8071 O   0  0  0  0  0  0  0  0  0  0  0  0
    3.2013   -1.4572    1.4768 N   0  0  0  0  0  0  0  0  0  0  0  0
    4.3994   -2.2406    1.1998 C   0  0  2  0  0  0  0  0  0  0  0  0
    5.4536   -1.4452    0.3824 C   0  0  1  0  0  0  0  0  0  0  0  0
    6.7076   -2.3257    0.1968 C   0  0  0  0  0  0  0  0  0  0  0  0
    6.3258   -3.5952   -0.5840 C   0  0  1  0  0  0  0  0  0  0  0  0
    5.2744   -4.3964    0.2188 C   0  0  0  0  0  0  0  0  0  0  0  0
    4.0187   -3.5222    0.4242 C   0  0  2  0  0  0  0  0  0  0  0  0
    3.4324   -3.1507   -0.9586 C   0  0  0  0  0  0  0  0  0  0  0  0
    4.4843   -2.3442   -1.7587 C   0  0  2  0  0  0  0  0  0  0  0  0
    3.9431   -1.9865   -3.0132 O   0  0  0  0  0  0  0  0  0  0  0  0
    5.7442   -3.2095   -1.9625 C   0  0  0  0  0  0  0  0  0  0  0  0
    4.8568   -1.0620   -0.9884 C   0  0  0  0  0  0  0  0  0  0  0  0
    1.4401    0.2690    4.1860 C   0  0  1  0  0  0  0  0  0  0  0  0
    2.2584   -0.7173    5.0607 C   0  0  0  0  0  0  0  0  0  0  0  0
   -0.0616    0.0625    4.4946 C   0  0  0  0  0  0  0  0  0  0  0  0
   -0.4750    0.6149    5.8857 C   0  0  0  0  0  0  0  0  0  0  0  0
   -0.1465    2.1327    6.0159 C   0  0  1  0  0  0  0  0  0  0  0  0
   -0.5978    2.8523    7.3398 C   0  0  1  0  0  0  0  0  0  0  0  0
   -0.4067    4.3873    7.1378 C   0  0  0  0  0  0  0  0  0  0  0  0
   -2.9586    4.0550    6.3220 H   0  0  0  0  0  0  0  0  0  0  0  0
   -4.0980    2.8268    6.8065 H   0  0  0  0  0  0  0  0  0  0  0  0
   -2.8778    2.4600    5.6081 H   0  0  0  0  0  0  0  0  0  0  0  0
   -2.2416    1.5037    7.8161 H   0  0  0  0  0  0  0  0  0  0  0  0
   -2.5333    4.2990    8.9324 H   0  0  0  0  0  0  0  0  0  0  0  0
   -3.5762    2.9362    9.2522 H   0  0  0  0  0  0  0  0  0  0  0  0
   -1.9067    3.3146   11.0846 H   0  0  0  0  0  0  0  0  0  0  0  0
   -1.7989    1.7197   10.4001 H   0  0  0  0  0  0  0  0  0  0  0  0
    0.0790    4.0609    9.8565 H   0  0  0  0  0  0  0  0  0  0  0  0
    0.4577    2.5839   10.6919 H   0  0  0  0  0  0  0  0  0  0  0  0
    0.1634    1.2938    8.6438 H   0  0  0  0  0  0  0  0  0  0  0  0
    2.0168    3.6849    8.2803 H   0  0  0  0  0  0  0  0  0  0  0  0
    2.3960    2.1799    9.0652 H   0  0  0  0  0  0  0  0  0  0  0  0
    3.2768    2.2755    6.7280 H   0  0  0  0  0  0  0  0  0  0  0  0
    2.2438    0.9006    7.0745 H   0  0  0  0  0  0  0  0  0  0  0  0
    1.4867    3.4467    5.5568 H   0  0  0  0  0  0  0  0  0  0  0  0
    2.9161    1.8447    4.3597 H   0  0  0  0  0  0  0  0  0  0  0  0
    0.2964    2.7977    3.1979 H   0  0  0  0  0  0  0  0  0  0  0  0
    1.9157    3.3777    2.9069 H   0  0  0  0  0  0  0  0  0  0  0  0
    0.5423    1.4410    1.3890 H   0  0  0  0  0  0  0  0  0  0  0  0
    2.2529    1.7472    1.3083 H   0  0  0  0  0  0  0  0  0  0  0  0
    1.0024   -0.6429    2.2400 H   0  0  0  0  0  0  0  0  0  0  0  0
    2.3501   -1.7261    1.0012 H   0  0  0  0  0  0  0  0  0  0  0  0
    4.8366   -2.5300    2.1575 H   0  0  0  0  0  0  0  0  0  0  0  0
    5.7491   -0.5410    0.9147 H   0  0  0  0  0  0  0  0  0  0  0  0
    7.4906   -1.7792   -0.3288 H   0  0  0  0  0  0  0  0  0  0  0  0
    7.1234   -2.5944    1.1694 H   0  0  0  0  0  0  0  0  0  0  0  0
    7.2169   -4.2059   -0.7140 H   0  0  0  0  0  0  0  0  0  0  0  0
    5.0117   -5.3139   -0.3123 H   0  0  0  0  0  0  0  0  0  0  0  0
    5.6850   -4.7048    1.1826 H   0  0  0  0  0  0  0  0  0  0  0  0
    3.2810   -4.0924    0.9935 H   0  0  0  0  0  0  0  0  0  0  0  0
    3.1503   -4.0531   -1.5007 H   0  0  0  0  0  0  0  0  0  0  0  0
    2.5169   -2.5735   -0.8437 H   0  0  0  0  0  0  0  0  0  0  0  0
    3.1137   -1.5592   -2.8638 H   0  0  0  0  0  0  0  0  0  0  0  0
    6.4901   -2.6710   -2.5489 H   0  0  0  0  0  0  0  0  0  0  0  0
    5.4934   -4.1088   -2.5278 H   0  0  0  0  0  0  0  0  0  0  0  0
    3.9777   -0.4353   -0.8479 H   0  0  0  0  0  0  0  0  0  0  0  0
    5.5663   -0.4634   -1.5572 H   0  0  0  0  0  0  0  0  0  0  0  0
    2.2893   -1.7166    4.6240 H   0  0  0  0  0  0  0  0  0  0  0  0
    1.8737   -0.8218    6.0742 H   0  0  0  0  0  0  0  0  0  0  0  0
    3.2909   -0.3941    5.1741 H   0  0  0  0  0  0  0  0  0  0  0  0
   -0.6779    0.5480    3.7406 H   0  0  0  0  0  0  0  0  0  0  0  0
   -0.3134   -1.0016    4.4202 H   0  0  0  0  0  0  0  0  0  0  0  0
   -1.5457    0.4229    6.0004 H   0  0  0  0  0  0  0  0  0  0  0  0
    0.0043    0.0351    6.6804 H   0  0  0  0  0  0  0  0  0  0  0  0
   -0.6968    2.5930    5.1981 H   0  0  0  0  0  0  0  0  0  0  0  0
    0.6354    4.6870    7.0169 H   0  0  0  0  0  0  0  0  0  0  0  0
   -0.7873    4.9797    7.9655 H   0  0  0  0  0  0  0  0  0  0  0  0
   -0.9160    4.7472    6.2461 H   0  0  0  0  0  0  0  0  0  0  0  0
  1  2  1  0
  1 35  1  0
  1 36  1  0
  1 37  1  0
  2 33  1  0
  2  3  1  0
  2 38  1  1
  3  4  1  0
  3 39  1  0
  3 40  1  0
  4  5  1  0
  4 41  1  0
  4 42  1  0
  5  6  1  0
  5 43  1  0
  5 44  1  0
  6 33  1  0
  6  7  1  0
  6 45  1  1
  7  8  1  0
  7 46  1  0
  7 47  1  0
  8  9  1  0
  8 48  1  0
  8 49  1  0
  9 32  1  0
  9 10  1  0
  9 50  1  6
 10 28  1  0
 10 11  1  0
 10 51  1  1
 11 12  1  0
 11 52  1  0
 11 53  1  0
 12 13  1  0
 12 54  1  0
 12 55  1  0
 13 14  1  0
 13 28  1  0
 13 56  1  6
 14 15  2  0
 14 16  1  0
 16 17  1  0
 16 57  1  0
 17 22  1  0
 17 18  1  0
 17 58  1  1
 18 27  1  0
 18 19  1  0
 18 59  1  1
 19 20  1  0
 19 60  1  0
 19 61  1  0
 20 26  1  0
 20 21  1  0
 20 62  1  6
 21 22  1  0
 21 63  1  0
 21 64  1  0
 22 23  1  0
 22 65  1  1
 23 24  1  0
 23 66  1  0
 23 67  1  0
 24 25  1  6
 24 26  1  0
 24 27  1  0
 25 68  1  0
 26 69  1  0
 26 70  1  0
 27 71  1  0
 27 72  1  0
 28 29  1  1
 28 30  1  0
 29 73  1  0
 29 74  1  0
 29 75  1  0
 30 31  1  0
 30 76  1  0
 30 77  1  0
 31 32  1  0
 31 78  1  0
 31 79  1  0
 32 33  1  0
 32 80  1  6
 33 34  1  6
 34 81  1  0
 34 82  1  0
 34 83  1  0
M  END
>  <i_m_ct_stereo_status>  (296) 
1

>  <s_m_source_file>  (296) 
/var/tmp/pbs.5076255.sched01/tmpay8aiv4m/132fzfu5vr2.sdf

>  <i_m_source_file_index>  (296) 
2

>  <i_lp_mmshare_version>  (296) 
48012

>  <i_f3d_flags>  (296) 
0

>  <s_epik_input>  (296) 
W0NIM11bQ0BASF0xW0NIMl1bQ0gyXVtDSDJdW0NASF0oW0NIMl1bQ0gyXTIpW0NAQF0xKFtDSDNdKVtDQEhdKFtDSDJdW0NIMl0zKVtDQEBIXTJbQ0BASF0oW0NAQF0zNFtDSDNdKVtDSDJdW0NIMl1bQ0BIXTRDKD1PKVtOSF1bQ0BIXShbQ0BIXShbQ0gyXTUpW0NIMl1bQ0BASF0oW0NIMl02KVtDSDJdNylbQ0BIXTZbQ0gyXVtDQEBdNTdbT0hd

>  <s_epik_cmdline>  (296) 
J2VwaWtfcHl0aG9uJywgJy1waHQnLCAnMi4wJywgJy1waCcsICc3LjAnLCAnLXRuJywgJzgnLCAnLW1hJywgJzIwMCcsICctaW1hZScsICc8aW5maWxlLm1hZT4nLCAnLW9tYWUnLCAnPG91dGZpbGUubWFlPic=

>  <r_lp_tautomer_probability>  (296) 
1

>  <r_epik_Ionization_Penalty>  (296) 
1.88715e-06

>  <r_epik_Ionization_Penalty_Charging>  (296) 
0

>  <r_epik_Ionization_Penalty_Neutral>  (296) 
1.88715e-06

>  <r_epik_State_Penalty>  (296) 
-0

>  <r_epik_Charging_Adjusted_Penalty>  (296) 
0

>  <i_epik_Tot_Q>  (296) 
0

>  <i_epik_Tot_abs_Q>  (296) 
0

>  <s_lp_Force_Field>  (296) 
OPLS3e

>  <r_lp_Energy>  (296) 
42.6444

>  <b_lp_Chiralities_Consistent>  (296) 
1

>  <s_lp_Variant>  (296) 
82:0-1

>  <s_i_glide_gridfile>  (296) 
pfpi4k_grid

>  <i_i_glide_lignum>  (296) 
2

>  <i_i_glide_rotatable_bonds>  (296) 
4

>  <r_i_docking_score>  (296) 
-2.85492

>  <r_i_glide_ligand_efficiency>  (296) 
-0.0839682

>  <r_i_glide_ligand_efficiency_sa>  (296) 
-0.272024

>  <r_i_glide_ligand_efficiency_ln>  (296) 
-0.630732

>  <r_i_glide_gscore>  (296) 
-2.85492

>  <r_i_glide_lipo>  (296) 
-0.648256

>  <r_i_glide_hbond>  (296) 
0

>  <r_i_glide_metal>  (296) 
-0

>  <r_i_glide_rewards>  (296) 
-0.220048

>  <r_i_glide_evdw>  (296) 
-36.5052

>  <r_i_glide_ecoul>  (296) 
-2.67345

>  <r_i_glide_erotb>  (296) 
0.276794

>  <r_i_glide_esite>  (296) 
-0.037131

>  <r_i_glide_emodel>  (296) 
-45.1214

>  <r_i_glide_energy>  (296) 
-39.1786

>  <r_i_glide_einternal>  (296) 
0.940214

>  <r_i_glide_intrahb_reward>  (296) 
-0

>  <i_i_glide_confnum>  (296) 
1

>  <i_i_glide_posenum>  (296) 
14

>  <r_i_glide_eff_state_penalty>  (296) 
0

>  <ligand_id>  (296) 
82

>  <original_smiles>  (296) 
CC1CCCC2CCC3C4CCC(C(=O)NC5C6CC7CC5CC(O)(C7)C6)C4(C)CCC3C12C

>  <smiles>  (296) 
[H]OC12C([H])([H])C3([H])C([H])([H])C([H])(C1([H])[H])C([H])(N([H])C(=O)C1([H])C([H])([H])C([H])([H])C4([H])C5([H])C([H])([H])C([H])([H])C6([H])C([H])([H])C([H])([H])C([H])([H])C([H])(C([H])([H])[H])C6(C([H])([H])[H])C5([H])C([H])([H])C([H])([H])C14C([H])([H])[H])C([H])(C3([H])[H])C2([H])[H]

$$$$
83:0:0
     RDKit          3D

 84 88  0  0  1  0  0  0  0  0999 V2000
   -0.4097   -9.5051    6.4887 C   0  0  0  0  0  0  0  0  0  0  0  0
    0.5706   -8.4446    6.9858 C   0  0  0  0  0  0  0  0  0  0  0  0
    0.9170   -8.6762    8.4510 C   0  0  0  0  0  0  0  0  0  0  0  0
   -0.1796   -8.3445    9.2531 O   0  0  0  0  0  0  0  0  0  0  0  0
    1.0991   -7.4435    6.2355 C   0  0  0  0  0  0  0  0  0  0  0  0
    2.0923   -6.4552    6.8217 C   0  0  0  0  0  0  0  0  0  0  0  0
    2.7656   -5.7490    5.6695 C   0  0  1  0  0  0  0  0  0  0  0  0
    4.1607   -6.3235    5.3432 C   0  0  0  0  0  0  0  0  0  0  0  0
    4.7400   -5.6927    4.0637 C   0  0  0  0  0  0  0  0  0  0  0  0
    3.8545   -5.8961    2.8001 C   0  0  2  0  0  0  0  0  0  0  0  0
    3.8714   -7.4262    2.5629 C   0  0  0  0  0  0  0  0  0  0  0  0
    4.5458   -5.1329    1.5821 C   0  0  2  0  0  0  0  0  0  0  0  0
    4.3757   -3.6112    1.5830 C   0  0  0  0  0  0  0  0  0  0  0  0
    3.4367   -3.0367    2.3571 C   0  0  0  0  0  0  0  0  0  0  0  0
    2.5058   -3.7730    3.2885 C   0  0  0  0  0  0  0  0  0  0  0  0
    2.4052   -5.3308    3.1205 C   0  0  1  0  0  0  0  0  0  0  0  0
    1.4515   -5.5451    1.9317 C   0  0  0  0  0  0  0  0  0  0  0  0
    1.7758   -5.8316    4.5010 C   0  0  1  0  0  0  0  0  0  0  0  0
    0.8318   -7.0788    4.7533 C   0  0  0  0  0  0  0  0  0  0  0  0
    1.0688   -8.3293    3.8728 C   0  0  0  0  0  0  0  0  0  0  0  0
   -0.6446   -6.6271    4.5840 C   0  0  0  0  0  0  0  0  0  0  0  0
    5.2930   -2.8174    0.6196 C   0  0  2  0  0  0  0  0  0  0  0  0
    6.7697   -3.0838    1.0263 C   0  0  0  0  0  0  0  0  0  0  0  0
    5.1064   -1.2743    0.7010 C   0  0  1  0  0  0  0  0  0  0  0  0
    6.1865   -0.5835    0.0900 O   0  0  0  0  0  0  0  0  0  0  0  0
    3.8835   -0.7123   -0.0139 C   0  0  0  0  0  0  0  0  0  0  0  0
    3.8563   -1.1499   -1.4926 C   0  0  0  0  0  0  0  0  0  0  0  0
    3.8335   -2.6882   -1.6388 C   0  0  0  0  0  0  0  0  0  0  0  0
    2.4611   -3.2025   -1.1829 C   0  0  0  0  0  0  0  0  0  0  0  0
    3.9287   -2.9987   -3.1494 C   0  0  0  0  0  0  0  0  0  0  0  0
    5.0462   -3.3037   -0.8487 C   0  0  2  0  0  0  0  0  0  0  0  0
    5.1365   -4.8337   -0.8836 C   0  0  0  0  0  0  0  0  0  0  0  0
    4.2774   -5.6072    0.1337 C   0  0  1  0  0  0  0  0  0  0  0  0
    4.6385   -6.9443   -0.0148 O   0  0  0  0  0  0  0  0  0  0  0  0
   -1.2116   -9.6672    7.2022 H   0  0  0  0  0  0  0  0  0  0  0  0
    0.0984  -10.4566    6.3621 H   0  0  0  0  0  0  0  0  0  0  0  0
   -0.8952   -9.2676    5.5571 H   0  0  0  0  0  0  0  0  0  0  0  0
    1.1288   -9.7345    8.5602 H   0  0  0  0  0  0  0  0  0  0  0  0
    1.7834   -8.1410    8.8431 H   0  0  0  0  0  0  0  0  0  0  0  0
   -0.9510   -8.6623    8.8087 H   0  0  0  0  0  0  0  0  0  0  0  0
    1.5099   -5.7496    7.4078 H   0  0  0  0  0  0  0  0  0  0  0  0
    2.8327   -6.9204    7.4642 H   0  0  0  0  0  0  0  0  0  0  0  0
    2.9305   -4.7167    5.9895 H   0  0  0  0  0  0  0  0  0  0  0  0
    4.8357   -6.1045    6.1658 H   0  0  0  0  0  0  0  0  0  0  0  0
    4.1201   -7.4138    5.2946 H   0  0  0  0  0  0  0  0  0  0  0  0
    4.8907   -4.6328    4.2543 H   0  0  0  0  0  0  0  0  0  0  0  0
    5.7391   -6.0978    3.8945 H   0  0  0  0  0  0  0  0  0  0  0  0
    3.2321   -7.7326    1.7437 H   0  0  0  0  0  0  0  0  0  0  0  0
    3.5605   -8.0166    3.4029 H   0  0  0  0  0  0  0  0  0  0  0  0
    4.8839   -7.7575    2.3426 H   0  0  0  0  0  0  0  0  0  0  0  0
    5.5959   -5.3258    1.7434 H   0  0  0  0  0  0  0  0  0  0  0  0
    3.2783   -1.9713    2.3762 H   0  0  0  0  0  0  0  0  0  0  0  0
    2.8510   -3.4902    4.2789 H   0  0  0  0  0  0  0  0  0  0  0  0
    1.5226   -3.3274    3.1711 H   0  0  0  0  0  0  0  0  0  0  0  0
    0.4442   -5.2907    2.2214 H   0  0  0  0  0  0  0  0  0  0  0  0
    1.4310   -6.5461    1.5121 H   0  0  0  0  0  0  0  0  0  0  0  0
    1.7217   -4.8906    1.1129 H   0  0  0  0  0  0  0  0  0  0  0  0
    1.1000   -5.0087    4.7418 H   0  0  0  0  0  0  0  0  0  0  0  0
    1.2888   -8.0940    2.8474 H   0  0  0  0  0  0  0  0  0  0  0  0
    0.1947   -8.9717    3.8084 H   0  0  0  0  0  0  0  0  0  0  0  0
    1.8700   -8.9503    4.2663 H   0  0  0  0  0  0  0  0  0  0  0  0
   -0.8462   -6.3120    3.5684 H   0  0  0  0  0  0  0  0  0  0  0  0
   -0.8851   -5.7957    5.2472 H   0  0  0  0  0  0  0  0  0  0  0  0
   -1.3725   -7.4003    4.7976 H   0  0  0  0  0  0  0  0  0  0  0  0
    7.4982   -2.5530    0.4139 H   0  0  0  0  0  0  0  0  0  0  0  0
    7.0934   -4.1140    0.9682 H   0  0  0  0  0  0  0  0  0  0  0  0
    6.9059   -2.7812    2.0538 H   0  0  0  0  0  0  0  0  0  0  0  0
    5.0989   -0.9426    1.7411 H   0  0  0  0  0  0  0  0  0  0  0  0
    5.9811    0.3399    0.1142 H   0  0  0  0  0  0  0  0  0  0  0  0
    2.9573   -1.0118    0.4613 H   0  0  0  0  0  0  0  0  0  0  0  0
    3.9302    0.3714    0.1228 H   0  0  0  0  0  0  0  0  0  0  0  0
    2.9998   -0.7043   -1.9981 H   0  0  0  0  0  0  0  0  0  0  0  0
    4.7291   -0.7575   -2.0141 H   0  0  0  0  0  0  0  0  0  0  0  0
    2.3142   -4.2599   -1.3791 H   0  0  0  0  0  0  0  0  0  0  0  0
    1.6662   -2.7121   -1.7486 H   0  0  0  0  0  0  0  0  0  0  0  0
    2.2743   -3.0326   -0.1298 H   0  0  0  0  0  0  0  0  0  0  0  0
    3.7549   -4.0545   -3.3753 H   0  0  0  0  0  0  0  0  0  0  0  0
    4.9061   -2.7416   -3.5492 H   0  0  0  0  0  0  0  0  0  0  0  0
    3.1803   -2.4397   -3.7191 H   0  0  0  0  0  0  0  0  0  0  0  0
    5.8975   -2.9465   -1.4311 H   0  0  0  0  0  0  0  0  0  0  0  0
    5.0062   -5.1905   -1.8972 H   0  0  0  0  0  0  0  0  0  0  0  0
    6.1856   -5.0613   -0.6723 H   0  0  0  0  0  0  0  0  0  0  0  0
    3.2317   -5.6010   -0.1273 H   0  0  0  0  0  0  0  0  0  0  0  0
    4.6786   -7.1580   -0.9319 H   0  0  0  0  0  0  0  0  0  0  0  0
  1  2  1  0
  1 35  1  0
  1 36  1  0
  1 37  1  0
  2  3  1  0
  2  5  2  3
  3  4  1  0
  3 38  1  0
  3 39  1  0
  4 40  1  0
  5 19  1  0
  5  6  1  0
  6  7  1  0
  6 41  1  0
  6 42  1  0
  7 18  1  0
  7  8  1  0
  7 43  1  1
  8  9  1  0
  8 44  1  0
  8 45  1  0
  9 10  1  0
  9 46  1  0
  9 47  1  0
 10 16  1  0
 10 11  1  6
 10 12  1  0
 11 48  1  0
 11 49  1  0
 11 50  1  0
 12 33  1  0
 12 13  1  0
 12 51  1  1
 13 14  2  0
 13 22  1  0
 14 15  1  0
 14 52  1  0
 15 16  1  0
 15 53  1  0
 15 54  1  0
 16 17  1  6
 16 18  1  0
 17 55  1  0
 17 56  1  0
 17 57  1  0
 18 19  1  0
 18 58  1  1
 19 20  1  0
 19 21  1  0
 20 59  1  0
 20 60  1  0
 20 61  1  0
 21 62  1  0
 21 63  1  0
 21 64  1  0
 22 31  1  0
 22 23  1  1
 22 24  1  0
 23 65  1  0
 23 66  1  0
 23 67  1  0
 24 25  1  0
 24 26  1  0
 24 68  1  1
 25 69  1  0
 26 27  1  0
 26 70  1  0
 26 71  1  0
 27 28  1  0
 27 72  1  0
 27 73  1  0
 28 29  1  0
 28 30  1  0
 28 31  1  0
 29 74  1  0
 29 75  1  0
 29 76  1  0
 30 77  1  0
 30 78  1  0
 30 79  1  0
 31 32  1  0
 31 80  1  6
 32 33  1  0
 32 81  1  0
 32 82  1  0
 33 34  1  0
 33 83  1  6
 34 84  1  0
M  END
>  <i_m_ct_stereo_status>  (297) 
1

>  <s_m_source_file>  (297) 
/var/tmp/pbs.5076255.sched01/tmpay8aiv4m/132fzfu5vr2.sdf

>  <i_m_source_file_index>  (297) 
3

>  <i_lp_mmshare_version>  (297) 
48012

>  <i_f3d_flags>  (297) 
0

>  <s_epik_input>  (297) 
W09IXVtDSDJdQyhcW0NIM10pPUMoQzEoW0NIM10pW0NIM10pL1tDSDJdW0NAQEhdKFtDSDJdW0NIMl0yKVtDQEhdMVtDQEBdMyhbQ0gzXSlbQ0gyXVtDSF09QyhbQ0BIXTRbQ0BAXTIzW0NIM10pW0NAQF01KFtDSDNdKVtDQEBIXShbQ0gyXVtDQEhdNFtPSF0pQyhbQ0gzXSkoW0NIM10pW0NIMl1bQ0gyXVtDQEBIXTVbT0hd

>  <s_epik_cmdline>  (297) 
J2VwaWtfcHl0aG9uJywgJy1waHQnLCAnMi4wJywgJy1waCcsICc3LjAnLCAnLXRuJywgJzgnLCAnLW1hJywgJzIwMCcsICctaW1hZScsICc8aW5maWxlLm1hZT4nLCAnLW9tYWUnLCAnPG91dGZpbGUubWFlPic=

>  <r_lp_tautomer_probability>  (297) 
1

>  <r_epik_Ionization_Penalty>  (297) 
3.03144e-06

>  <r_epik_Ionization_Penalty_Charging>  (297) 
0

>  <r_epik_Ionization_Penalty_Neutral>  (297) 
3.03144e-06

>  <r_epik_State_Penalty>  (297) 
-0

>  <r_epik_Charging_Adjusted_Penalty>  (297) 
0

>  <i_epik_Tot_Q>  (297) 
0

>  <i_epik_Tot_abs_Q>  (297) 
0

>  <s_lp_Force_Field>  (297) 
OPLS3e

>  <r_lp_Energy>  (297) 
99.9285

>  <b_lp_Chiralities_Consistent>  (297) 
1

>  <s_lp_Variant>  (297) 
83:0-1

>  <s_i_glide_gridfile>  (297) 
pfpi4k_grid

>  <i_i_glide_lignum>  (297) 
3

>  <i_i_glide_rotatable_bonds>  (297) 
4

>  <r_i_docking_score>  (297) 
-2.90907

>  <r_i_glide_ligand_efficiency>  (297) 
-0.0855608

>  <r_i_glide_ligand_efficiency_sa>  (297) 
-0.277184

>  <r_i_glide_ligand_efficiency_ln>  (297) 
-0.642694

>  <r_i_glide_gscore>  (297) 
-2.90907

>  <r_i_glide_lipo>  (297) 
-0.387509

>  <r_i_glide_hbond>  (297) 
-0.450072

>  <r_i_glide_metal>  (297) 
-0

>  <r_i_glide_rewards>  (297) 
-0.199589

>  <r_i_glide_evdw>  (297) 
-20.9107

>  <r_i_glide_ecoul>  (297) 
-6.11702

>  <r_i_glide_erotb>  (297) 
0.0911945

>  <r_i_glide_esite>  (297) 
0

>  <r_i_glide_emodel>  (297) 
-29.8061

>  <r_i_glide_energy>  (297) 
-27.0278

>  <r_i_glide_einternal>  (297) 
1.7953

>  <r_i_glide_intrahb_reward>  (297) 
-0

>  <i_i_glide_confnum>  (297) 
6

>  <i_i_glide_posenum>  (297) 
7

>  <r_i_glide_eff_state_penalty>  (297) 
0

>  <ligand_id>  (297) 
83

>  <original_smiles>  (297) 
CC(CO)=C1CC2CCC3(C)C4C(=CCC3(C)C2C1(C)C)C1(C)C(O)CCC(C)(C)C1CC4O

>  <smiles>  (297) 
[H]OC([H])([H])C(=C1C([H])([H])C2([H])C([H])([H])C([H])([H])C3(C([H])([H])[H])C4([H])C(=C([H])C([H])([H])C3(C([H])([H])[H])C2([H])C1(C([H])([H])[H])C([H])([H])[H])C1(C([H])([H])[H])C([H])(O[H])C([H])([H])C([H])([H])C(C([H])([H])[H])(C([H])([H])[H])C1([H])C([H])([H])C4([H])O[H])C([H])([H])[H]

$$$$
83:0:1
     RDKit          3D

 84 88  0  0  1  0  0  0  0  0999 V2000
   -0.4424   -9.3269    6.9412 C   0  0  0  0  0  0  0  0  0  0  0  0
    0.5649   -8.2739    7.4001 C   0  0  0  0  0  0  0  0  0  0  0  0
    0.9518   -8.4733    8.8662 C   0  0  0  0  0  0  0  0  0  0  0  0
   -0.1524   -8.2745    9.7265 O   0  0  0  0  0  0  0  0  0  0  0  0
    1.1172   -7.3001    6.6168 C   0  0  0  0  0  0  0  0  0  0  0  0
    2.1708   -6.3472    7.1472 C   0  0  0  0  0  0  0  0  0  0  0  0
    2.8489   -5.6847    5.9582 C   0  0  1  0  0  0  0  0  0  0  0  0
    4.2031   -6.3113    5.5971 C   0  0  0  0  0  0  0  0  0  0  0  0
    4.7630   -5.7300    4.2820 C   0  0  0  0  0  0  0  0  0  0  0  0
    3.8350   -5.9287    3.0461 C   0  0  2  0  0  0  0  0  0  0  0  0
    3.7935   -7.4602    2.8200 C   0  0  0  0  0  0  0  0  0  0  0  0
    4.5280   -5.2322    1.7826 C   0  0  2  0  0  0  0  0  0  0  0  0
    4.3964   -3.6990    1.7558 C   0  0  0  0  0  0  0  0  0  0  0  0
    3.5067   -3.0792    2.5516 C   0  0  0  0  0  0  0  0  0  0  0  0
    2.5781   -3.7505    3.5365 C   0  0  0  0  0  0  0  0  0  0  0  0
    2.4143   -5.3039    3.4035 C   0  0  1  0  0  0  0  0  0  0  0  0
    1.4072   -5.4934    2.2482 C   0  0  0  0  0  0  0  0  0  0  0  0
    1.8179   -5.7516    4.8203 C   0  0  1  0  0  0  0  0  0  0  0  0
    0.8317   -6.9617    5.1348 C   0  0  0  0  0  0  0  0  0  0  0  0
    1.0021   -8.2329    4.2752 C   0  0  0  0  0  0  0  0  0  0  0  0
   -0.6255   -6.4539    4.9937 C   0  0  0  0  0  0  0  0  0  0  0  0
    5.3091   -2.9458    0.7370 C   0  0  2  0  0  0  0  0  0  0  0  0
    6.7933   -3.2669    1.0758 C   0  0  0  0  0  0  0  0  0  0  0  0
    5.1734   -1.3764    0.8034 C   0  0  1  0  0  0  0  0  0  0  0  0
    6.2722   -0.7041    0.2104 O   0  0  0  0  0  0  0  0  0  0  0  0
    3.9439   -0.7964    0.0939 C   0  0  0  0  0  0  0  0  0  0  0  0
    3.8688   -1.2904   -1.3556 C   0  0  0  0  0  0  0  0  0  0  0  0
    3.7777   -2.8298   -1.4618 C   0  0  0  0  0  0  0  0  0  0  0  0
    2.4053   -3.2945   -0.9433 C   0  0  0  0  0  0  0  0  0  0  0  0
    3.8250   -3.1590   -2.9737 C   0  0  0  0  0  0  0  0  0  0  0  0
    5.0045   -3.4645   -0.7076 C   0  0  2  0  0  0  0  0  0  0  0  0
    5.0516   -5.0068   -0.7392 C   0  0  0  0  0  0  0  0  0  0  0  0
    4.2366   -5.7624    0.3383 C   0  0  1  0  0  0  0  0  0  0  0  0
    4.6107   -7.1066    0.1427 O   0  0  0  0  0  0  0  0  0  0  0  0
   -1.2260   -9.4455    7.6852 H   0  0  0  0  0  0  0  0  0  0  0  0
    0.0483  -10.2937    6.8252 H   0  0  0  0  0  0  0  0  0  0  0  0
   -0.9518   -9.1046    6.0139 H   0  0  0  0  0  0  0  0  0  0  0  0
    1.3067   -9.5006    8.9762 H   0  0  0  0  0  0  0  0  0  0  0  0
    1.7425   -7.8194    9.2269 H   0  0  0  0  0  0  0  0  0  0  0  0
    0.1489   -8.4041   10.6133 H   0  0  0  0  0  0  0  0  0  0  0  0
    1.6507   -5.5949    7.7399 H   0  0  0  0  0  0  0  0  0  0  0  0
    2.9134   -6.8304    7.7791 H   0  0  0  0  0  0  0  0  0  0  0  0
    3.0537   -4.6540    6.2436 H   0  0  0  0  0  0  0  0  0  0  0  0
    4.9151   -6.1007    6.3955 H   0  0  0  0  0  0  0  0  0  0  0  0
    4.1256   -7.3993    5.5679 H   0  0  0  0  0  0  0  0  0  0  0  0
    4.9591   -4.6706    4.4417 H   0  0  0  0  0  0  0  0  0  0  0  0
    5.7417   -6.1713    4.0946 H   0  0  0  0  0  0  0  0  0  0  0  0
    3.1264   -7.7531    2.0138 H   0  0  0  0  0  0  0  0  0  0  0  0
    3.4839   -8.0188    3.6891 H   0  0  0  0  0  0  0  0  0  0  0  0
    4.7888   -7.8343    2.5841 H   0  0  0  0  0  0  0  0  0  0  0  0
    5.5780   -5.4527    1.9392 H   0  0  0  0  0  0  0  0  0  0  0  0
    3.3915   -2.0089    2.5475 H   0  0  0  0  0  0  0  0  0  0  0  0
    2.9714   -3.4567    4.5066 H   0  0  0  0  0  0  0  0  0  0  0  0
    1.6027   -3.2645    3.4449 H   0  0  0  0  0  0  0  0  0  0  0  0
    0.4220   -5.1613    2.5438 H   0  0  0  0  0  0  0  0  0  0  0  0
    1.3250   -6.5078    1.8692 H   0  0  0  0  0  0  0  0  0  0  0  0
    1.6893   -4.8780    1.3985 H   0  0  0  0  0  0  0  0  0  0  0  0
    1.1829   -4.9007    5.0640 H   0  0  0  0  0  0  0  0  0  0  0  0
    1.1952   -8.0315    3.2331 H   0  0  0  0  0  0  0  0  0  0  0  0
    0.1061   -8.8441    4.2504 H   0  0  0  0  0  0  0  0  0  0  0  0
    1.7923   -8.8757    4.6558 H   0  0  0  0  0  0  0  0  0  0  0  0
   -0.8486   -6.1572    3.9746 H   0  0  0  0  0  0  0  0  0  0  0  0
   -0.8206   -5.5993    5.6430 H   0  0  0  0  0  0  0  0  0  0  0  0
   -1.3694   -7.2005    5.2480 H   0  0  0  0  0  0  0  0  0  0  0  0
    7.5027   -2.7944    0.3997 H   0  0  0  0  0  0  0  0  0  0  0  0
    7.0583   -4.3157    1.0364 H   0  0  0  0  0  0  0  0  0  0  0  0
    7.0008   -2.9161    2.0759 H   0  0  0  0  0  0  0  0  0  0  0  0
    5.1794   -1.0479    1.8428 H   0  0  0  0  0  0  0  0  0  0  0  0
    6.8583   -0.4231    0.8996 H   0  0  0  0  0  0  0  0  0  0  0  0
    3.0217   -1.0431    0.6168 H   0  0  0  0  0  0  0  0  0  0  0  0
    4.0179    0.2906    0.1118 H   0  0  0  0  0  0  0  0  0  0  0  0
    3.0119   -0.8293   -1.8456 H   0  0  0  0  0  0  0  0  0  0  0  0
    4.7392   -0.9325   -1.9078 H   0  0  0  0  0  0  0  0  0  0  0  0
    2.2256   -4.3543   -1.1099 H   0  0  0  0  0  0  0  0  0  0  0  0
    1.6349   -2.7812   -1.5161 H   0  0  0  0  0  0  0  0  0  0  0  0
    2.2588   -3.0717    0.1160 H   0  0  0  0  0  0  0  0  0  0  0  0
    3.6173   -4.2079   -3.1779 H   0  0  0  0  0  0  0  0  0  0  0  0
    4.7985   -2.9262   -3.4045 H   0  0  0  0  0  0  0  0  0  0  0  0
    3.0676   -2.5845   -3.5130 H   0  0  0  0  0  0  0  0  0  0  0  0
    5.8530   -3.1399   -1.3123 H   0  0  0  0  0  0  0  0  0  0  0  0
    4.8062   -5.3618   -1.7323 H   0  0  0  0  0  0  0  0  0  0  0  0
    6.0918   -5.2849   -0.6037 H   0  0  0  0  0  0  0  0  0  0  0  0
    3.1768   -5.7172    0.1149 H   0  0  0  0  0  0  0  0  0  0  0  0
    4.5252   -7.3112   -0.7731 H   0  0  0  0  0  0  0  0  0  0  0  0
  1  2  1  0
  1 35  1  0
  1 36  1  0
  1 37  1  0
  2  3  1  0
  2  5  2  3
  3  4  1  0
  3 38  1  0
  3 39  1  0
  4 40  1  0
  5 19  1  0
  5  6  1  0
  6  7  1  0
  6 41  1  0
  6 42  1  0
  7 18  1  0
  7  8  1  0
  7 43  1  1
  8  9  1  0
  8 44  1  0
  8 45  1  0
  9 10  1  0
  9 46  1  0
  9 47  1  0
 10 16  1  0
 10 11  1  6
 10 12  1  0
 11 48  1  0
 11 49  1  0
 11 50  1  0
 12 33  1  0
 12 13  1  0
 12 51  1  1
 13 14  2  0
 13 22  1  0
 14 15  1  0
 14 52  1  0
 15 16  1  0
 15 53  1  0
 15 54  1  0
 16 17  1  6
 16 18  1  0
 17 55  1  0
 17 56  1  0
 17 57  1  0
 18 19  1  0
 18 58  1  1
 19 20  1  0
 19 21  1  0
 20 59  1  0
 20 60  1  0
 20 61  1  0
 21 62  1  0
 21 63  1  0
 21 64  1  0
 22 31  1  0
 22 23  1  1
 22 24  1  0
 23 65  1  0
 23 66  1  0
 23 67  1  0
 24 25  1  0
 24 26  1  0
 24 68  1  1
 25 69  1  0
 26 27  1  0
 26 70  1  0
 26 71  1  0
 27 28  1  0
 27 72  1  0
 27 73  1  0
 28 29  1  0
 28 30  1  0
 28 31  1  0
 29 74  1  0
 29 75  1  0
 29 76  1  0
 30 77  1  0
 30 78  1  0
 30 79  1  0
 31 32  1  0
 31 80  1  6
 32 33  1  0
 32 81  1  0
 32 82  1  0
 33 34  1  0
 33 83  1  6
 34 84  1  0
M  END
>  <i_m_ct_stereo_status>  (298) 
1

>  <s_m_source_file>  (298) 
/var/tmp/pbs.5076255.sched01/tmpay8aiv4m/132fzfu5vr2.sdf

>  <i_m_source_file_index>  (298) 
3

>  <i_lp_mmshare_version>  (298) 
48012

>  <i_f3d_flags>  (298) 
0

>  <s_epik_input>  (298) 
W09IXVtDSDJdQyhcW0NIM10pPUMoQzEoW0NIM10pW0NIM10pL1tDSDJdW0NAQEhdKFtDSDJdW0NIMl0yKVtDQEhdMVtDQEBdMyhbQ0gzXSlbQ0gyXVtDSF09QyhbQ0BIXTRbQ0BAXTIzW0NIM10pW0NAQF01KFtDSDNdKVtDQEBIXShbQ0gyXVtDQEhdNFtPSF0pQyhbQ0gzXSkoW0NIM10pW0NIMl1bQ0gyXVtDQEBIXTVbT0hd

>  <s_epik_cmdline>  (298) 
J2VwaWtfcHl0aG9uJywgJy1waHQnLCAnMi4wJywgJy1waCcsICc3LjAnLCAnLXRuJywgJzgnLCAnLW1hJywgJzIwMCcsICctaW1hZScsICc8aW5maWxlLm1hZT4nLCAnLW9tYWUnLCAnPG91dGZpbGUubWFlPic=

>  <r_lp_tautomer_probability>  (298) 
1

>  <r_epik_Ionization_Penalty>  (298) 
3.03144e-06

>  <r_epik_Ionization_Penalty_Charging>  (298) 
0

>  <r_epik_Ionization_Penalty_Neutral>  (298) 
3.03144e-06

>  <r_epik_State_Penalty>  (298) 
-0

>  <r_epik_Charging_Adjusted_Penalty>  (298) 
0

>  <i_epik_Tot_Q>  (298) 
0

>  <i_epik_Tot_abs_Q>  (298) 
0

>  <s_lp_Force_Field>  (298) 
OPLS3e

>  <r_lp_Energy>  (298) 
99.9285

>  <b_lp_Chiralities_Consistent>  (298) 
1

>  <s_lp_Variant>  (298) 
83:0-1

>  <s_i_glide_gridfile>  (298) 
pfpi4k_grid

>  <i_i_glide_lignum>  (298) 
3

>  <i_i_glide_rotatable_bonds>  (298) 
4

>  <r_i_docking_score>  (298) 
-2.85415

>  <r_i_glide_ligand_efficiency>  (298) 
-0.0839455

>  <r_i_glide_ligand_efficiency_sa>  (298) 
-0.271951

>  <r_i_glide_ligand_efficiency_ln>  (298) 
-0.630561

>  <r_i_glide_gscore>  (298) 
-2.85415

>  <r_i_glide_lipo>  (298) 
-0.371935

>  <r_i_glide_hbond>  (298) 
-0.435731

>  <r_i_glide_metal>  (298) 
-0

>  <r_i_glide_rewards>  (298) 
-0.199589

>  <r_i_glide_evdw>  (298) 
-19.3111

>  <r_i_glide_ecoul>  (298) 
-6.48352

>  <r_i_glide_erotb>  (298) 
0.0911945

>  <r_i_glide_esite>  (298) 
0

>  <r_i_glide_emodel>  (298) 
-28.3611

>  <r_i_glide_energy>  (298) 
-25.7947

>  <r_i_glide_einternal>  (298) 
2.18479

>  <r_i_glide_intrahb_reward>  (298) 
-0

>  <i_i_glide_confnum>  (298) 
3

>  <i_i_glide_posenum>  (298) 
18

>  <r_i_glide_eff_state_penalty>  (298) 
0

>  <ligand_id>  (298) 
83

>  <original_smiles>  (298) 
CC(CO)=C1CC2CCC3(C)C4C(=CCC3(C)C2C1(C)C)C1(C)C(O)CCC(C)(C)C1CC4O

>  <smiles>  (298) 
[H]OC([H])([H])C(=C1C([H])([H])C2([H])C([H])([H])C([H])([H])C3(C([H])([H])[H])C4([H])C(=C([H])C([H])([H])C3(C([H])([H])[H])C2([H])C1(C([H])([H])[H])C([H])([H])[H])C1(C([H])([H])[H])C([H])(O[H])C([H])([H])C([H])([H])C(C([H])([H])[H])(C([H])([H])[H])C1([H])C([H])([H])C4([H])O[H])C([H])([H])[H]

$$$$
83:0:2
     RDKit          3D

 84 88  0  0  1  0  0  0  0  0999 V2000
   -0.2526   -9.4138    7.0084 C   0  0  0  0  0  0  0  0  0  0  0  0
    0.6460   -8.2816    7.4925 C   0  0  0  0  0  0  0  0  0  0  0  0
    0.9811   -8.4120    8.9745 C   0  0  0  0  0  0  0  0  0  0  0  0
   -0.1858   -8.2998    9.7639 O   0  0  0  0  0  0  0  0  0  0  0  0
    1.1460   -7.2806    6.7044 C   0  0  0  0  0  0  0  0  0  0  0  0
    2.0852   -6.2304    7.2570 C   0  0  0  0  0  0  0  0  0  0  0  0
    2.7527   -5.5460    6.0796 C   0  0  1  0  0  0  0  0  0  0  0  0
    4.1741   -6.0635    5.8014 C   0  0  0  0  0  0  0  0  0  0  0  0
    4.7420   -5.4680    4.4988 C   0  0  0  0  0  0  0  0  0  0  0  0
    3.8952   -5.7769    3.2298 C   0  0  2  0  0  0  0  0  0  0  0  0
    3.9904   -7.3111    3.0530 C   0  0  0  0  0  0  0  0  0  0  0  0
    4.5878   -5.0561    1.9838 C   0  0  2  0  0  0  0  0  0  0  0  0
    4.3105   -3.5446    1.8916 C   0  0  0  0  0  0  0  0  0  0  0  0
    3.3409   -2.9802    2.6287 C   0  0  0  0  0  0  0  0  0  0  0  0
    2.4362   -3.7025    3.5943 C   0  0  0  0  0  0  0  0  0  0  0  0
    2.4081   -5.2681    3.4976 C   0  0  1  0  0  0  0  0  0  0  0  0
    1.4756   -5.5728    2.3042 C   0  0  0  0  0  0  0  0  0  0  0  0
    1.7869   -5.7300    4.9004 C   0  0  1  0  0  0  0  0  0  0  0  0
    0.8951   -7.0103    5.2057 C   0  0  0  0  0  0  0  0  0  0  0  0
    1.2133   -8.2863    4.3934 C   0  0  0  0  0  0  0  0  0  0  0  0
   -0.5925   -6.6343    4.9831 C   0  0  0  0  0  0  0  0  0  0  0  0
    5.1967   -2.7539    0.8907 C   0  0  2  0  0  0  0  0  0  0  0  0
    6.6604   -2.9244    1.3358 C   0  0  0  0  0  0  0  0  0  0  0  0
    4.9514   -1.2083    0.8979 C   0  0  1  0  0  0  0  0  0  0  0  0
    6.0042   -0.4897    0.2809 O   0  0  0  0  0  0  0  0  0  0  0  0
    3.7230   -0.7453    0.1327 C   0  0  0  0  0  0  0  0  0  0  0  0
    3.7430   -1.2706   -1.3067 C   0  0  0  0  0  0  0  0  0  0  0  0
    3.7785   -2.8164   -1.3676 C   0  0  0  0  0  0  0  0  0  0  0  0
    2.4280   -3.3811   -0.8897 C   0  0  0  0  0  0  0  0  0  0  0  0
    3.9280   -3.1818   -2.8627 C   0  0  0  0  0  0  0  0  0  0  0  0
    5.0195   -3.3341   -0.5461 C   0  0  2  0  0  0  0  0  0  0  0  0
    5.2048   -4.8688   -0.5311 C   0  0  0  0  0  0  0  0  0  0  0  0
    4.4377   -5.6578    0.5526 C   0  0  1  0  0  0  0  0  0  0  0  0
    4.9783   -6.9557    0.4653 O   0  0  0  0  0  0  0  0  0  0  0  0
   -1.0722   -9.5638    7.6997 H   0  0  0  0  0  0  0  0  0  0  0  0
    0.3036  -10.3461    6.9438 H   0  0  0  0  0  0  0  0  0  0  0  0
   -0.7342   -9.2661    6.0560 H   0  0  0  0  0  0  0  0  0  0  0  0
    1.4262   -9.3906    9.1367 H   0  0  0  0  0  0  0  0  0  0  0  0
    1.6887   -7.6830    9.3696 H   0  0  0  0  0  0  0  0  0  0  0  0
   -0.7203   -9.0578    9.5893 H   0  0  0  0  0  0  0  0  0  0  0  0
    1.4727   -5.5161    7.8057 H   0  0  0  0  0  0  0  0  0  0  0  0
    2.8373   -6.6346    7.9350 H   0  0  0  0  0  0  0  0  0  0  0  0
    2.8605   -4.4942    6.3495 H   0  0  0  0  0  0  0  0  0  0  0  0
    4.8266   -5.7731    6.6244 H   0  0  0  0  0  0  0  0  0  0  0  0
    4.1921   -7.1551    5.8021 H   0  0  0  0  0  0  0  0  0  0  0  0
    4.8392   -4.3935    4.6369 H   0  0  0  0  0  0  0  0  0  0  0  0
    5.7641   -5.8272    4.3679 H   0  0  0  0  0  0  0  0  0  0  0  0
    3.3952   -7.6815    2.2233 H   0  0  0  0  0  0  0  0  0  0  0  0
    3.6865   -7.8732    3.9201 H   0  0  0  0  0  0  0  0  0  0  0  0
    5.0230   -7.6092    2.8844 H   0  0  0  0  0  0  0  0  0  0  0  0
    5.6423   -5.1633    2.2088 H   0  0  0  0  0  0  0  0  0  0  0  0
    3.1408   -1.9202    2.5946 H   0  0  0  0  0  0  0  0  0  0  0  0
    2.7536   -3.3550    4.5748 H   0  0  0  0  0  0  0  0  0  0  0  0
    1.4295   -3.3074    3.4514 H   0  0  0  0  0  0  0  0  0  0  0  0
    0.4448   -5.3248    2.5348 H   0  0  0  0  0  0  0  0  0  0  0  0
    1.4997   -6.5978    1.9500 H   0  0  0  0  0  0  0  0  0  0  0  0
    1.7453   -4.9647    1.4475 H   0  0  0  0  0  0  0  0  0  0  0  0
    1.0693   -4.9311    5.0960 H   0  0  0  0  0  0  0  0  0  0  0  0
    1.4386   -8.0930    3.3567 H   0  0  0  0  0  0  0  0  0  0  0  0
    0.3756   -8.9727    4.3440 H   0  0  0  0  0  0  0  0  0  0  0  0
    2.0361   -8.8468    4.8295 H   0  0  0  0  0  0  0  0  0  0  0  0
   -0.7939   -6.3763    3.9473 H   0  0  0  0  0  0  0  0  0  0  0  0
   -0.8930   -5.7874    5.6018 H   0  0  0  0  0  0  0  0  0  0  0  0
   -1.2794   -7.4362    5.2192 H   0  0  0  0  0  0  0  0  0  0  0  0
    7.3860   -2.3765    0.7366 H   0  0  0  0  0  0  0  0  0  0  0  0
    7.0442   -3.9342    1.3446 H   0  0  0  0  0  0  0  0  0  0  0  0
    6.6619   -2.5376    2.3455 H   0  0  0  0  0  0  0  0  0  0  0  0
    4.9022   -0.8286    1.9190 H   0  0  0  0  0  0  0  0  0  0  0  0
    5.7113    0.4033    0.1400 H   0  0  0  0  0  0  0  0  0  0  0  0
    2.7975   -1.0321    0.6204 H   0  0  0  0  0  0  0  0  0  0  0  0
    3.7599    0.3388    0.1543 H   0  0  0  0  0  0  0  0  0  0  0  0
    2.8756   -0.8975   -1.8528 H   0  0  0  0  0  0  0  0  0  0  0  0
    4.6039   -0.8668   -1.8346 H   0  0  0  0  0  0  0  0  0  0  0  0
    2.3421   -4.4596   -1.0242 H   0  0  0  0  0  0  0  0  0  0  0  0
    1.6115   -2.9659   -1.4822 H   0  0  0  0  0  0  0  0  0  0  0  0
    2.2261   -3.1468    0.1535 H   0  0  0  0  0  0  0  0  0  0  0  0
    3.8230   -4.2539   -3.0407 H   0  0  0  0  0  0  0  0  0  0  0  0
    4.8951   -2.8747   -3.2555 H   0  0  0  0  0  0  0  0  0  0  0  0
    3.1516   -2.6930   -3.4592 H   0  0  0  0  0  0  0  0  0  0  0  0
    5.8623   -2.9488   -1.1179 H   0  0  0  0  0  0  0  0  0  0  0  0
    5.0004   -5.2907   -1.5118 H   0  0  0  0  0  0  0  0  0  0  0  0
    6.2664   -5.0486   -0.3665 H   0  0  0  0  0  0  0  0  0  0  0  0
    3.3921   -5.7400    0.2764 H   0  0  0  0  0  0  0  0  0  0  0  0
    5.8878   -6.9260    0.7309 H   0  0  0  0  0  0  0  0  0  0  0  0
  1  2  1  0
  1 35  1  0
  1 36  1  0
  1 37  1  0
  2  3  1  0
  2  5  2  3
  3  4  1  0
  3 38  1  0
  3 39  1  0
  4 40  1  0
  5 19  1  0
  5  6  1  0
  6  7  1  0
  6 41  1  0
  6 42  1  0
  7 18  1  0
  7  8  1  0
  7 43  1  1
  8  9  1  0
  8 44  1  0
  8 45  1  0
  9 10  1  0
  9 46  1  0
  9 47  1  0
 10 16  1  0
 10 11  1  6
 10 12  1  0
 11 48  1  0
 11 49  1  0
 11 50  1  0
 12 33  1  0
 12 13  1  0
 12 51  1  1
 13 14  2  0
 13 22  1  0
 14 15  1  0
 14 52  1  0
 15 16  1  0
 15 53  1  0
 15 54  1  0
 16 17  1  6
 16 18  1  0
 17 55  1  0
 17 56  1  0
 17 57  1  0
 18 19  1  0
 18 58  1  1
 19 20  1  0
 19 21  1  0
 20 59  1  0
 20 60  1  0
 20 61  1  0
 21 62  1  0
 21 63  1  0
 21 64  1  0
 22 31  1  0
 22 23  1  1
 22 24  1  0
 23 65  1  0
 23 66  1  0
 23 67  1  0
 24 25  1  0
 24 26  1  0
 24 68  1  1
 25 69  1  0
 26 27  1  0
 26 70  1  0
 26 71  1  0
 27 28  1  0
 27 72  1  0
 27 73  1  0
 28 29  1  0
 28 30  1  0
 28 31  1  0
 29 74  1  0
 29 75  1  0
 29 76  1  0
 30 77  1  0
 30 78  1  0
 30 79  1  0
 31 32  1  0
 31 80  1  6
 32 33  1  0
 32 81  1  0
 32 82  1  0
 33 34  1  0
 33 83  1  6
 34 84  1  0
M  END
>  <i_m_ct_stereo_status>  (299) 
1

>  <s_m_source_file>  (299) 
/var/tmp/pbs.5076255.sched01/tmpay8aiv4m/132fzfu5vr2.sdf

>  <i_m_source_file_index>  (299) 
3

>  <i_lp_mmshare_version>  (299) 
48012

>  <i_f3d_flags>  (299) 
0

>  <s_epik_input>  (299) 
W09IXVtDSDJdQyhcW0NIM10pPUMoQzEoW0NIM10pW0NIM10pL1tDSDJdW0NAQEhdKFtDSDJdW0NIMl0yKVtDQEhdMVtDQEBdMyhbQ0gzXSlbQ0gyXVtDSF09QyhbQ0BIXTRbQ0BAXTIzW0NIM10pW0NAQF01KFtDSDNdKVtDQEBIXShbQ0gyXVtDQEhdNFtPSF0pQyhbQ0gzXSkoW0NIM10pW0NIMl1bQ0gyXVtDQEBIXTVbT0hd

>  <s_epik_cmdline>  (299) 
J2VwaWtfcHl0aG9uJywgJy1waHQnLCAnMi4wJywgJy1waCcsICc3LjAnLCAnLXRuJywgJzgnLCAnLW1hJywgJzIwMCcsICctaW1hZScsICc8aW5maWxlLm1hZT4nLCAnLW9tYWUnLCAnPG91dGZpbGUubWFlPic=

>  <r_lp_tautomer_probability>  (299) 
1

>  <r_epik_Ionization_Penalty>  (299) 
3.03144e-06

>  <r_epik_Ionization_Penalty_Charging>  (299) 
0

>  <r_epik_Ionization_Penalty_Neutral>  (299) 
3.03144e-06

>  <r_epik_State_Penalty>  (299) 
-0

>  <r_epik_Charging_Adjusted_Penalty>  (299) 
0

>  <i_epik_Tot_Q>  (299) 
0

>  <i_epik_Tot_abs_Q>  (299) 
0

>  <s_lp_Force_Field>  (299) 
OPLS3e

>  <r_lp_Energy>  (299) 
99.9285

>  <b_lp_Chiralities_Consistent>  (299) 
1

>  <s_lp_Variant>  (299) 
83:0-1

>  <s_i_glide_gridfile>  (299) 
pfpi4k_grid

>  <i_i_glide_lignum>  (299) 
3

>  <i_i_glide_rotatable_bonds>  (299) 
4

>  <r_i_docking_score>  (299) 
-2.72915

>  <r_i_glide_ligand_efficiency>  (299) 
-0.0802693

>  <r_i_glide_ligand_efficiency_sa>  (299) 
-0.260041

>  <r_i_glide_ligand_efficiency_ln>  (299) 
-0.602947

>  <r_i_glide_gscore>  (299) 
-2.72915

>  <r_i_glide_lipo>  (299) 
-0.329212

>  <r_i_glide_hbond>  (299) 
-0.544409

>  <r_i_glide_metal>  (299) 
-0

>  <r_i_glide_rewards>  (299) 
-0.199589

>  <r_i_glide_evdw>  (299) 
-19.657

>  <r_i_glide_ecoul>  (299) 
-5.09525

>  <r_i_glide_erotb>  (299) 
0.0911945

>  <r_i_glide_esite>  (299) 
0

>  <r_i_glide_emodel>  (299) 
-27.5347

>  <r_i_glide_energy>  (299) 
-24.7523

>  <r_i_glide_einternal>  (299) 
0.896525

>  <r_i_glide_intrahb_reward>  (299) 
-0

>  <i_i_glide_confnum>  (299) 
3

>  <i_i_glide_posenum>  (299) 
1

>  <r_i_glide_eff_state_penalty>  (299) 
0

>  <ligand_id>  (299) 
83

>  <original_smiles>  (299) 
CC(CO)=C1CC2CCC3(C)C4C(=CCC3(C)C2C1(C)C)C1(C)C(O)CCC(C)(C)C1CC4O

>  <smiles>  (299) 
[H]OC([H])([H])C(=C1C([H])([H])C2([H])C([H])([H])C([H])([H])C3(C([H])([H])[H])C4([H])C(=C([H])C([H])([H])C3(C([H])([H])[H])C2([H])C1(C([H])([H])[H])C([H])([H])[H])C1(C([H])([H])[H])C([H])(O[H])C([H])([H])C([H])([H])C(C([H])([H])[H])(C([H])([H])[H])C1([H])C([H])([H])C4([H])O[H])C([H])([H])[H]

$$$$
83:1:0
     RDKit          3D

 84 88  0  0  1  0  0  0  0  0999 V2000
    9.4527   -2.6305    0.6244 C   0  0  0  0  0  0  0  0  0  0  0  0
    7.9309   -2.5167    0.8185 C   0  0  0  0  0  0  0  0  0  0  0  0
    7.4737   -1.0873    0.6776 C   0  0  0  0  0  0  0  0  0  0  0  0
    6.4443   -0.9726   -0.2976 O   0  0  0  0  0  0  0  0  0  0  0  0
    7.1481   -3.5968    1.0656 C   0  0  0  0  0  0  0  0  0  0  0  0
    7.7848   -4.9376    1.3870 C   0  0  0  0  0  0  0  0  0  0  0  0
    6.7221   -5.8241    2.0220 C   0  0  1  0  0  0  0  0  0  0  0  0
    6.8490   -6.0142    3.5414 C   0  0  0  0  0  0  0  0  0  0  0  0
    5.6410   -6.7903    4.1088 C   0  0  0  0  0  0  0  0  0  0  0  0
    4.2583   -6.1023    3.8740 C   0  0  2  0  0  0  0  0  0  0  0  0
    4.3149   -4.7902    4.6938 C   0  0  0  0  0  0  0  0  0  0  0  0
    3.1298   -7.0495    4.4964 C   0  0  2  0  0  0  0  0  0  0  0  0
    2.7491   -8.2442    3.5971 C   0  0  0  0  0  0  0  0  0  0  0  0
    3.1422   -8.2916    2.3109 C   0  0  0  0  0  0  0  0  0  0  0  0
    3.9623   -7.2490    1.6011 C   0  0  0  0  0  0  0  0  0  0  0  0
    4.1032   -5.8599    2.3094 C   0  0  1  0  0  0  0  0  0  0  0  0
    2.7802   -5.1176    1.9799 C   0  0  0  0  0  0  0  0  0  0  0  0
    5.3788   -5.2004    1.6075 C   0  0  1  0  0  0  0  0  0  0  0  0
    5.6097   -3.6683    1.2635 C   0  0  0  0  0  0  0  0  0  0  0  0
    5.2253   -2.6666    2.3716 C   0  0  0  0  0  0  0  0  0  0  0  0
    4.8091   -3.3655   -0.0323 C   0  0  0  0  0  0  0  0  0  0  0  0
    1.8940   -9.3530    4.2697 C   0  0  2  0  0  0  0  0  0  0  0  0
    2.7126   -9.9314    5.4623 C   0  0  0  0  0  0  0  0  0  0  0  0
    1.5821  -10.5931    3.3486 C   0  0  1  0  0  0  0  0  0  0  0  0
    1.1217  -11.7190    4.0805 O   0  0  0  0  0  0  0  0  0  0  0  0
    0.4970  -10.3103    2.3152 C   0  0  0  0  0  0  0  0  0  0  0  0
   -0.7669   -9.8025    2.9585 C   0  0  0  0  0  0  0  0  0  0  0  0
   -0.5792   -8.4865    3.7083 C   0  0  0  0  0  0  0  0  0  0  0  0
   -0.3604   -7.3628    2.6797 C   0  0  0  0  0  0  0  0  0  0  0  0
   -1.9135   -8.1850    4.4009 C   0  0  0  0  0  0  0  0  0  0  0  0
    0.5580   -8.7003    4.7758 C   0  0  2  0  0  0  0  0  0  0  0  0
    0.8443   -7.4733    5.6699 C   0  0  0  0  0  0  0  0  0  0  0  0
    1.8158   -6.4232    5.0854 C   0  0  1  0  0  0  0  0  0  0  0  0
    2.0185   -5.5560    6.1840 O   0  0  0  0  0  0  0  0  0  0  0  0
    9.7516   -2.2164   -0.3229 H   0  0  0  0  0  0  0  0  0  0  0  0
    9.8092   -3.6528    0.6234 H   0  0  0  0  0  0  0  0  0  0  0  0
    9.9821   -2.0656    1.3883 H   0  0  0  0  0  0  0  0  0  0  0  0
    7.1513   -0.6926    1.6279 H   0  0  0  0  0  0  0  0  0  0  0  0
    8.3376   -0.5107    0.3744 H   0  0  0  0  0  0  0  0  0  0  0  0
    5.6150   -1.0290    0.1638 H   0  0  0  0  0  0  0  0  0  0  0  0
    8.1323   -5.3726    0.4504 H   0  0  0  0  0  0  0  0  0  0  0  0
    8.6552   -4.8408    2.0437 H   0  0  0  0  0  0  0  0  0  0  0  0
    6.8522   -6.8212    1.5773 H   0  0  0  0  0  0  0  0  0  0  0  0
    7.7621   -6.5786    3.7465 H   0  0  0  0  0  0  0  0  0  0  0  0
    6.9846   -5.0559    4.0381 H   0  0  0  0  0  0  0  0  0  0  0  0
    5.6481   -7.7824    3.6626 H   0  0  0  0  0  0  0  0  0  0  0  0
    5.8119   -6.9547    5.1732 H   0  0  0  0  0  0  0  0  0  0  0  0
    3.4199   -4.1809    4.5718 H   0  0  0  0  0  0  0  0  0  0  0  0
    5.1569   -4.1622    4.4486 H   0  0  0  0  0  0  0  0  0  0  0  0
    4.4379   -5.0095    5.7550 H   0  0  0  0  0  0  0  0  0  0  0  0
    3.6228   -7.4712    5.3608 H   0  0  0  0  0  0  0  0  0  0  0  0
    2.9026   -9.1171    1.6652 H   0  0  0  0  0  0  0  0  0  0  0  0
    4.9268   -7.7329    1.4546 H   0  0  0  0  0  0  0  0  0  0  0  0
    3.5481   -7.1142    0.6014 H   0  0  0  0  0  0  0  0  0  0  0  0
    2.6326   -4.9980    0.9098 H   0  0  0  0  0  0  0  0  0  0  0  0
    2.6762   -4.1459    2.4552 H   0  0  0  0  0  0  0  0  0  0  0  0
    1.9201   -5.6990    2.2778 H   0  0  0  0  0  0  0  0  0  0  0  0
    5.3047   -5.6085    0.5986 H   0  0  0  0  0  0  0  0  0  0  0  0
    4.2540   -2.8458    2.8006 H   0  0  0  0  0  0  0  0  0  0  0  0
    5.1734   -1.6493    1.9959 H   0  0  0  0  0  0  0  0  0  0  0  0
    5.9360   -2.6395    3.1898 H   0  0  0  0  0  0  0  0  0  0  0  0
    3.7625   -3.6120    0.1047 H   0  0  0  0  0  0  0  0  0  0  0  0
    5.1518   -3.9969   -0.8455 H   0  0  0  0  0  0  0  0  0  0  0  0
    4.7610   -2.3639   -0.3771 H   0  0  0  0  0  0  0  0  0  0  0  0
    2.1746  -10.7092    6.0087 H   0  0  0  0  0  0  0  0  0  0  0  0
    2.9596   -9.2059    6.2321 H   0  0  0  0  0  0  0  0  0  0  0  0
    3.6503  -10.3630    5.1036 H   0  0  0  0  0  0  0  0  0  0  0  0
    2.4834  -10.9193    2.8237 H   0  0  0  0  0  0  0  0  0  0  0  0
    1.7763  -11.9373    4.7307 H   0  0  0  0  0  0  0  0  0  0  0  0
    0.8890   -9.5592    1.6531 H   0  0  0  0  0  0  0  0  0  0  0  0
    0.2148  -11.2178    1.7642 H   0  0  0  0  0  0  0  0  0  0  0  0
   -1.5870   -9.7549    2.2385 H   0  0  0  0  0  0  0  0  0  0  0  0
   -0.9598  -10.5682    3.6911 H   0  0  0  0  0  0  0  0  0  0  0  0
   -0.3831   -6.3776    3.1508 H   0  0  0  0  0  0  0  0  0  0  0  0
   -1.1568   -7.3943    1.9266 H   0  0  0  0  0  0  0  0  0  0  0  0
    0.5802   -7.4896    2.1484 H   0  0  0  0  0  0  0  0  0  0  0  0
   -1.9436   -7.1850    4.8357 H   0  0  0  0  0  0  0  0  0  0  0  0
   -2.1061   -8.8945    5.2039 H   0  0  0  0  0  0  0  0  0  0  0  0
   -2.7318   -8.2536    3.6833 H   0  0  0  0  0  0  0  0  0  0  0  0
    0.1310   -9.4428    5.4532 H   0  0  0  0  0  0  0  0  0  0  0  0
   -0.0844   -6.9875    5.9586 H   0  0  0  0  0  0  0  0  0  0  0  0
    1.2484   -7.8493    6.6133 H   0  0  0  0  0  0  0  0  0  0  0  0
    1.3020   -5.8388    4.3330 H   0  0  0  0  0  0  0  0  0  0  0  0
    2.5339   -6.0106    6.8345 H   0  0  0  0  0  0  0  0  0  0  0  0
  1  2  1  0
  1 35  1  0
  1 36  1  0
  1 37  1  0
  2  3  1  0
  2  5  2  3
  3  4  1  0
  3 38  1  0
  3 39  1  0
  4 40  1  0
  5 19  1  0
  5  6  1  0
  6  7  1  0
  6 41  1  0
  6 42  1  0
  7 18  1  0
  7  8  1  0
  7 43  1  6
  8  9  1  0
  8 44  1  0
  8 45  1  0
  9 10  1  0
  9 46  1  0
  9 47  1  0
 10 16  1  0
 10 11  1  1
 10 12  1  0
 11 48  1  0
 11 49  1  0
 11 50  1  0
 12 33  1  0
 12 13  1  0
 12 51  1  1
 13 14  2  0
 13 22  1  0
 14 15  1  0
 14 52  1  0
 15 16  1  0
 15 53  1  0
 15 54  1  0
 16 17  1  1
 16 18  1  0
 17 55  1  0
 17 56  1  0
 17 57  1  0
 18 19  1  0
 18 58  1  6
 19 20  1  0
 19 21  1  0
 20 59  1  0
 20 60  1  0
 20 61  1  0
 21 62  1  0
 21 63  1  0
 21 64  1  0
 22 31  1  0
 22 23  1  1
 22 24  1  0
 23 65  1  0
 23 66  1  0
 23 67  1  0
 24 25  1  0
 24 26  1  0
 24 68  1  6
 25 69  1  0
 26 27  1  0
 26 70  1  0
 26 71  1  0
 27 28  1  0
 27 72  1  0
 27 73  1  0
 28 29  1  0
 28 30  1  0
 28 31  1  0
 29 74  1  0
 29 75  1  0
 29 76  1  0
 30 77  1  0
 30 78  1  0
 30 79  1  0
 31 32  1  0
 31 80  1  1
 32 33  1  0
 32 81  1  0
 32 82  1  0
 33 34  1  0
 33 83  1  6
 34 84  1  0
M  END
>  <i_m_ct_stereo_status>  (300) 
1

>  <s_m_source_file>  (300) 
/var/tmp/pbs.5076255.sched01/tmpay8aiv4m/132fzfu5vr2.sdf

>  <i_m_source_file_index>  (300) 
4

>  <i_lp_mmshare_version>  (300) 
48012

>  <i_f3d_flags>  (300) 
0

>  <s_epik_input>  (300) 
W09IXVtDSDJdQyhcW0NIM10pPUMoQzEoW0NIM10pW0NIM10pL1tDSDJdW0NAQEhdKFtDSDJdW0NIMl0yKVtDQEhdMVtDQEBdMyhbQ0gzXSlbQ0gyXVtDSF09QyhbQ0BIXTRbQ0BAXTIzW0NIM10pW0NAQF01KFtDSDNdKVtDQEBIXShbQ0gyXVtDQEhdNFtPSF0pQyhbQ0gzXSkoW0NIM10pW0NIMl1bQ0gyXVtDQEBIXTVbT0hd

>  <s_epik_cmdline>  (300) 
J2VwaWtfcHl0aG9uJywgJy1waHQnLCAnMi4wJywgJy1waCcsICc3LjAnLCAnLXRuJywgJzgnLCAnLW1hJywgJzIwMCcsICctaW1hZScsICc8aW5maWxlLm1hZT4nLCAnLW9tYWUnLCAnPG91dGZpbGUubWFlPic=

>  <r_lp_tautomer_probability>  (300) 
1

>  <r_epik_Ionization_Penalty>  (300) 
3.03144e-06

>  <r_epik_Ionization_Penalty_Charging>  (300) 
0

>  <r_epik_Ionization_Penalty_Neutral>  (300) 
3.03144e-06

>  <r_epik_State_Penalty>  (300) 
-0

>  <r_epik_Charging_Adjusted_Penalty>  (300) 
0

>  <i_epik_Tot_Q>  (300) 
0

>  <i_epik_Tot_abs_Q>  (300) 
0

>  <s_lp_Force_Field>  (300) 
OPLS3e

>  <r_lp_Energy>  (300) 
100.373

>  <b_lp_Chiralities_Consistent>  (300) 
1

>  <s_lp_Variant>  (300) 
83:0-2

>  <s_i_glide_gridfile>  (300) 
pfpi4k_grid

>  <i_i_glide_lignum>  (300) 
4

>  <i_i_glide_rotatable_bonds>  (300) 
4

>  <r_i_docking_score>  (300) 
-2.40194

>  <r_i_glide_ligand_efficiency>  (300) 
-0.0706454

>  <r_i_glide_ligand_efficiency_sa>  (300) 
-0.228864

>  <r_i_glide_ligand_efficiency_ln>  (300) 
-0.530657

>  <r_i_glide_gscore>  (300) 
-2.40194

>  <r_i_glide_lipo>  (300) 
-0.982387

>  <r_i_glide_hbond>  (300) 
-0.0695744

>  <r_i_glide_metal>  (300) 
-0

>  <r_i_glide_rewards>  (300) 
-0.199589

>  <r_i_glide_evdw>  (300) 
-14.0924

>  <r_i_glide_ecoul>  (300) 
-3.57978

>  <r_i_glide_erotb>  (300) 
0.0911945

>  <r_i_glide_esite>  (300) 
0

>  <r_i_glide_emodel>  (300) 
-14.8335

>  <r_i_glide_energy>  (300) 
-17.6722

>  <r_i_glide_einternal>  (300) 
4.04726

>  <r_i_glide_intrahb_reward>  (300) 
-0

>  <i_i_glide_confnum>  (300) 
5

>  <i_i_glide_posenum>  (300) 
27

>  <r_i_glide_eff_state_penalty>  (300) 
0

>  <ligand_id>  (300) 
83

>  <original_smiles>  (300) 
CC(CO)=C1CC2CCC3(C)C4C(=CCC3(C)C2C1(C)C)C1(C)C(O)CCC(C)(C)C1CC4O

>  <smiles>  (300) 
[H]OC([H])([H])C(=C1C([H])([H])C2([H])C([H])([H])C([H])([H])C3(C([H])([H])[H])C4([H])C(=C([H])C([H])([H])C3(C([H])([H])[H])C2([H])C1(C([H])([H])[H])C([H])([H])[H])C1(C([H])([H])[H])C([H])(O[H])C([H])([H])C([H])([H])C(C([H])([H])[H])(C([H])([H])[H])C1([H])C([H])([H])C4([H])O[H])C([H])([H])[H]

$$$$
83:1:1
     RDKit          3D

 84 88  0  0  1  0  0  0  0  0999 V2000
    5.1585   -1.9796   -3.0601 C   0  0  0  0  0  0  0  0  0  0  0  0
    4.0029   -2.3377   -2.1485 C   0  0  0  0  0  0  0  0  0  0  0  0
    2.8953   -1.3130   -2.2066 C   0  0  0  0  0  0  0  0  0  0  0  0
    3.0486   -0.2881   -3.1847 O   0  0  0  0  0  0  0  0  0  0  0  0
    4.0691   -3.4084   -1.2885 C   0  0  0  0  0  0  0  0  0  0  0  0
    5.3119   -4.2635   -1.3007 C   0  0  0  0  0  0  0  0  0  0  0  0
    5.2146   -5.2517   -0.1426 C   0  0  1  0  0  0  0  0  0  0  0  0
    6.1722   -4.9116    1.0056 C   0  0  0  0  0  0  0  0  0  0  0  0
    5.9312   -5.8250    2.2313 C   0  0  0  0  0  0  0  0  0  0  0  0
    4.4864   -5.7626    2.8137 C   0  0  2  0  0  0  0  0  0  0  0  0
    4.3344   -4.3277    3.3667 C   0  0  0  0  0  0  0  0  0  0  0  0
    4.4045   -6.8133    4.0233 C   0  0  2  0  0  0  0  0  0  0  0  0
    4.2265   -8.2734    3.5857 C   0  0  0  0  0  0  0  0  0  0  0  0
    3.9248   -8.5741    2.3227 C   0  0  0  0  0  0  0  0  0  0  0  0
    3.6947   -7.5852    1.2278 C   0  0  0  0  0  0  0  0  0  0  0  0
    3.4813   -6.0821    1.6216 C   0  0  1  0  0  0  0  0  0  0  0  0
    1.9924   -5.9864    2.0520 C   0  0  0  0  0  0  0  0  0  0  0  0
    3.7389   -5.2636    0.2782 C   0  0  1  0  0  0  0  0  0  0  0  0
    3.0844   -3.9129   -0.2094 C   0  0  0  0  0  0  0  0  0  0  0  0
    2.9262   -2.8156    0.8326 C   0  0  0  0  0  0  0  0  0  0  0  0
    1.6851   -4.1889   -0.8392 C   0  0  0  0  0  0  0  0  0  0  0  0
    4.4055   -9.3490    4.6765 C   0  0  2  0  0  0  0  0  0  0  0  0
    5.8681   -9.2339    5.1952 C   0  0  0  0  0  0  0  0  0  0  0  0
    4.2482  -10.8277    4.1443 C   0  0  1  0  0  0  0  0  0  0  0  0
    4.8333  -11.7629    5.0476 O   0  0  0  0  0  0  0  0  0  0  0  0
    2.8064  -11.3130    3.9459 C   0  0  0  0  0  0  0  0  0  0  0  0
    2.0101  -11.0846    5.2237 C   0  0  0  0  0  0  0  0  0  0  0  0
    1.9162   -9.6073    5.6522 C   0  0  0  0  0  0  0  0  0  0  0  0
    1.0431   -8.8544    4.6202 C   0  0  0  0  0  0  0  0  0  0  0  0
    1.1415   -9.5549    6.9925 C   0  0  0  0  0  0  0  0  0  0  0  0
    3.3863   -9.0732    5.8346 C   0  0  2  0  0  0  0  0  0  0  0  0
    3.4825   -7.6070    6.3125 C   0  0  0  0  0  0  0  0  0  0  0  0
    3.4244   -6.5304    5.2158 C   0  0  1  0  0  0  0  0  0  0  0  0
    3.7361   -5.3514    5.9411 O   0  0  0  0  0  0  0  0  0  0  0  0
    4.8159   -1.7087   -4.0556 H   0  0  0  0  0  0  0  0  0  0  0  0
    5.9416   -2.7357   -3.1617 H   0  0  0  0  0  0  0  0  0  0  0  0
    5.5656   -1.0876   -2.5919 H   0  0  0  0  0  0  0  0  0  0  0  0
    1.9588   -1.8444   -2.3555 H   0  0  0  0  0  0  0  0  0  0  0  0
    2.9719   -0.8192   -1.2479 H   0  0  0  0  0  0  0  0  0  0  0  0
    2.4698    0.4368   -2.9499 H   0  0  0  0  0  0  0  0  0  0  0  0
    5.2111   -4.7874   -2.2506 H   0  0  0  0  0  0  0  0  0  0  0  0
    6.2556   -3.7149   -1.3101 H   0  0  0  0  0  0  0  0  0  0  0  0
    5.5143   -6.2220   -0.5315 H   0  0  0  0  0  0  0  0  0  0  0  0
    7.1981   -5.0854    0.6668 H   0  0  0  0  0  0  0  0  0  0  0  0
    6.1074   -3.8506    1.2473 H   0  0  0  0  0  0  0  0  0  0  0  0
    6.1600   -6.8362    1.9223 H   0  0  0  0  0  0  0  0  0  0  0  0
    6.6629   -5.5825    2.9992 H   0  0  0  0  0  0  0  0  0  0  0  0
    3.3312   -4.1385    3.7498 H   0  0  0  0  0  0  0  0  0  0  0  0
    4.5442   -3.5790    2.6272 H   0  0  0  0  0  0  0  0  0  0  0  0
    5.0567   -4.1585    4.1604 H   0  0  0  0  0  0  0  0  0  0  0  0
    5.3898   -6.7562    4.4590 H   0  0  0  0  0  0  0  0  0  0  0  0
    3.7564   -9.5814    1.9761 H   0  0  0  0  0  0  0  0  0  0  0  0
    4.5096   -7.7412    0.5204 H   0  0  0  0  0  0  0  0  0  0  0  0
    2.7593   -7.9782    0.8701 H   0  0  0  0  0  0  0  0  0  0  0  0
    1.3356   -6.2462    1.2338 H   0  0  0  0  0  0  0  0  0  0  0  0
    1.7064   -5.0132    2.4330 H   0  0  0  0  0  0  0  0  0  0  0  0
    1.7765   -6.7092    2.8240 H   0  0  0  0  0  0  0  0  0  0  0  0
    3.3037   -5.9538   -0.4282 H   0  0  0  0  0  0  0  0  0  0  0  0
    2.4597   -3.1795    1.7334 H   0  0  0  0  0  0  0  0  0  0  0  0
    2.2508   -2.0336    0.4831 H   0  0  0  0  0  0  0  0  0  0  0  0
    3.8600   -2.3112    1.0825 H   0  0  0  0  0  0  0  0  0  0  0  0
    1.0181   -4.7551   -0.2549 H   0  0  0  0  0  0  0  0  0  0  0  0
    1.7323   -4.7697   -1.7479 H   0  0  0  0  0  0  0  0  0  0  0  0
    1.1670   -3.2715   -1.1409 H   0  0  0  0  0  0  0  0  0  0  0  0
    6.0908   -9.9465    5.9873 H   0  0  0  0  0  0  0  0  0  0  0  0
    6.1089   -8.2726    5.6393 H   0  0  0  0  0  0  0  0  0  0  0  0
    6.5669   -9.4019    4.3864 H   0  0  0  0  0  0  0  0  0  0  0  0
    4.8123  -10.9670    3.2192 H   0  0  0  0  0  0  0  0  0  0  0  0
    4.6653  -12.6241    4.7232 H   0  0  0  0  0  0  0  0  0  0  0  0
    2.3250  -10.8335    3.1085 H   0  0  0  0  0  0  0  0  0  0  0  0
    2.8118  -12.3764    3.7280 H   0  0  0  0  0  0  0  0  0  0  0  0
    1.0131  -11.5140    5.1293 H   0  0  0  0  0  0  0  0  0  0  0  0
    2.5183  -11.6290    6.0300 H   0  0  0  0  0  0  0  0  0  0  0  0
    0.8098   -7.8558    4.9658 H   0  0  0  0  0  0  0  0  0  0  0  0
    0.0953   -9.3792    4.4964 H   0  0  0  0  0  0  0  0  0  0  0  0
    1.5270   -8.8070    3.6501 H   0  0  0  0  0  0  0  0  0  0  0  0
    0.8913   -8.5397    7.2812 H   0  0  0  0  0  0  0  0  0  0  0  0
    1.7302  -10.0097    7.7934 H   0  0  0  0  0  0  0  0  0  0  0  0
    0.2083  -10.1118    6.9089 H   0  0  0  0  0  0  0  0  0  0  0  0
    3.7492   -9.6568    6.6851 H   0  0  0  0  0  0  0  0  0  0  0  0
    2.7159   -7.3919    7.0484 H   0  0  0  0  0  0  0  0  0  0  0  0
    4.4225   -7.5082    6.8488 H   0  0  0  0  0  0  0  0  0  0  0  0
    2.4075   -6.4278    4.8586 H   0  0  0  0  0  0  0  0  0  0  0  0
    4.6071   -5.4372    6.2640 H   0  0  0  0  0  0  0  0  0  0  0  0
  1  2  1  0
  1 35  1  0
  1 36  1  0
  1 37  1  0
  2  3  1  0
  2  5  2  3
  3  4  1  0
  3 38  1  0
  3 39  1  0
  4 40  1  0
  5 19  1  0
  5  6  1  0
  6  7  1  0
  6 41  1  0
  6 42  1  0
  7 18  1  0
  7  8  1  0
  7 43  1  6
  8  9  1  0
  8 44  1  0
  8 45  1  0
  9 10  1  0
  9 46  1  0
  9 47  1  0
 10 16  1  0
 10 11  1  1
 10 12  1  0
 11 48  1  0
 11 49  1  0
 11 50  1  0
 12 33  1  0
 12 13  1  0
 12 51  1  1
 13 14  2  0
 13 22  1  0
 14 15  1  0
 14 52  1  0
 15 16  1  0
 15 53  1  0
 15 54  1  0
 16 17  1  1
 16 18  1  0
 17 55  1  0
 17 56  1  0
 17 57  1  0
 18 19  1  0
 18 58  1  6
 19 20  1  0
 19 21  1  0
 20 59  1  0
 20 60  1  0
 20 61  1  0
 21 62  1  0
 21 63  1  0
 21 64  1  0
 22 31  1  0
 22 23  1  1
 22 24  1  0
 23 65  1  0
 23 66  1  0
 23 67  1  0
 24 25  1  0
 24 26  1  0
 24 68  1  6
 25 69  1  0
 26 27  1  0
 26 70  1  0
 26 71  1  0
 27 28  1  0
 27 72  1  0
 27 73  1  0
 28 29  1  0
 28 30  1  0
 28 31  1  0
 29 74  1  0
 29 75  1  0
 29 76  1  0
 30 77  1  0
 30 78  1  0
 30 79  1  0
 31 32  1  0
 31 80  1  1
 32 33  1  0
 32 81  1  0
 32 82  1  0
 33 34  1  0
 33 83  1  6
 34 84  1  0
M  END
>  <i_m_ct_stereo_status>  (301) 
1

>  <s_m_source_file>  (301) 
/var/tmp/pbs.5076255.sched01/tmpay8aiv4m/132fzfu5vr2.sdf

>  <i_m_source_file_index>  (301) 
4

>  <i_lp_mmshare_version>  (301) 
48012

>  <i_f3d_flags>  (301) 
0

>  <s_epik_input>  (301) 
W09IXVtDSDJdQyhcW0NIM10pPUMoQzEoW0NIM10pW0NIM10pL1tDSDJdW0NAQEhdKFtDSDJdW0NIMl0yKVtDQEhdMVtDQEBdMyhbQ0gzXSlbQ0gyXVtDSF09QyhbQ0BIXTRbQ0BAXTIzW0NIM10pW0NAQF01KFtDSDNdKVtDQEBIXShbQ0gyXVtDQEhdNFtPSF0pQyhbQ0gzXSkoW0NIM10pW0NIMl1bQ0gyXVtDQEBIXTVbT0hd

>  <s_epik_cmdline>  (301) 
J2VwaWtfcHl0aG9uJywgJy1waHQnLCAnMi4wJywgJy1waCcsICc3LjAnLCAnLXRuJywgJzgnLCAnLW1hJywgJzIwMCcsICctaW1hZScsICc8aW5maWxlLm1hZT4nLCAnLW9tYWUnLCAnPG91dGZpbGUubWFlPic=

>  <r_lp_tautomer_probability>  (301) 
1

>  <r_epik_Ionization_Penalty>  (301) 
3.03144e-06

>  <r_epik_Ionization_Penalty_Charging>  (301) 
0

>  <r_epik_Ionization_Penalty_Neutral>  (301) 
3.03144e-06

>  <r_epik_State_Penalty>  (301) 
-0

>  <r_epik_Charging_Adjusted_Penalty>  (301) 
0

>  <i_epik_Tot_Q>  (301) 
0

>  <i_epik_Tot_abs_Q>  (301) 
0

>  <s_lp_Force_Field>  (301) 
OPLS3e

>  <r_lp_Energy>  (301) 
100.373

>  <b_lp_Chiralities_Consistent>  (301) 
1

>  <s_lp_Variant>  (301) 
83:0-2

>  <s_i_glide_gridfile>  (301) 
pfpi4k_grid

>  <i_i_glide_lignum>  (301) 
4

>  <i_i_glide_rotatable_bonds>  (301) 
4

>  <r_i_docking_score>  (301) 
-1.89365

>  <r_i_glide_ligand_efficiency>  (301) 
-0.0556955

>  <r_i_glide_ligand_efficiency_sa>  (301) 
-0.180432

>  <r_i_glide_ligand_efficiency_ln>  (301) 
-0.41836

>  <r_i_glide_gscore>  (301) 
-1.89365

>  <r_i_glide_lipo>  (301) 
-0.232523

>  <r_i_glide_hbond>  (301) 
-0.32

>  <r_i_glide_metal>  (301) 
-0

>  <r_i_glide_rewards>  (301) 
-0.199589

>  <r_i_glide_evdw>  (301) 
-12.2695

>  <r_i_glide_ecoul>  (301) 
-4.12837

>  <r_i_glide_erotb>  (301) 
0.0911945

>  <r_i_glide_esite>  (301) 
0

>  <r_i_glide_emodel>  (301) 
-13.2415

>  <r_i_glide_energy>  (301) 
-16.3979

>  <r_i_glide_einternal>  (301) 
5.07602

>  <r_i_glide_intrahb_reward>  (301) 
-0

>  <i_i_glide_confnum>  (301) 
4

>  <i_i_glide_posenum>  (301) 
13

>  <r_i_glide_eff_state_penalty>  (301) 
0

>  <ligand_id>  (301) 
83

>  <original_smiles>  (301) 
CC(CO)=C1CC2CCC3(C)C4C(=CCC3(C)C2C1(C)C)C1(C)C(O)CCC(C)(C)C1CC4O

>  <smiles>  (301) 
[H]OC([H])([H])C(=C1C([H])([H])C2([H])C([H])([H])C([H])([H])C3(C([H])([H])[H])C4([H])C(=C([H])C([H])([H])C3(C([H])([H])[H])C2([H])C1(C([H])([H])[H])C([H])([H])[H])C1(C([H])([H])[H])C([H])(O[H])C([H])([H])C([H])([H])C(C([H])([H])[H])(C([H])([H])[H])C1([H])C([H])([H])C4([H])O[H])C([H])([H])[H]

$$$$
83:1:2
     RDKit          3D

 84 88  0  0  1  0  0  0  0  0999 V2000
    5.0266   -3.0775   -3.6107 C   0  0  0  0  0  0  0  0  0  0  0  0
    3.9146   -3.0387   -2.5706 C   0  0  0  0  0  0  0  0  0  0  0  0
    2.9080   -1.8999   -2.8029 C   0  0  0  0  0  0  0  0  0  0  0  0
    3.4066   -0.8238   -3.6015 O   0  0  0  0  0  0  0  0  0  0  0  0
    3.9131   -3.9201   -1.5433 C   0  0  0  0  0  0  0  0  0  0  0  0
    5.0448   -4.9198   -1.3828 C   0  0  0  0  0  0  0  0  0  0  0  0
    4.8102   -5.7408   -0.1105 C   0  0  1  0  0  0  0  0  0  0  0  0
    5.7912   -5.3473    0.9806 C   0  0  0  0  0  0  0  0  0  0  0  0
    5.4363   -6.0089    2.3260 C   0  0  0  0  0  0  0  0  0  0  0  0
    4.0128   -5.6526    2.8636 C   0  0  2  0  0  0  0  0  0  0  0  0
    4.0582   -4.1343    3.1612 C   0  0  0  0  0  0  0  0  0  0  0  0
    3.8142   -6.4452    4.2420 C   0  0  2  0  0  0  0  0  0  0  0  0
    3.4287   -7.9357    4.0583 C   0  0  0  0  0  0  0  0  0  0  0  0
    3.0569   -8.4064    2.8633 C   0  0  0  0  0  0  0  0  0  0  0  0
    2.9406   -7.6037    1.5890 C   0  0  0  0  0  0  0  0  0  0  0  0
    2.9586   -6.0442    1.7390 C   0  0  1  0  0  0  0  0  0  0  0  0
    1.5075   -5.6811    2.1502 C   0  0  0  0  0  0  0  0  0  0  0  0
    3.3438   -5.5154    0.2729 C   0  0  1  0  0  0  0  0  0  0  0  0
    2.8763   -4.1929   -0.4481 C   0  0  0  0  0  0  0  0  0  0  0  0
    2.8210   -2.9458    0.4366 C   0  0  0  0  0  0  0  0  0  0  0  0
    1.4851   -4.4531   -1.1055 C   0  0  0  0  0  0  0  0  0  0  0  0
    3.5090   -8.8121    5.3440 C   0  0  2  0  0  0  0  0  0  0  0  0
    4.9901   -8.7764    5.8389 C   0  0  0  0  0  0  0  0  0  0  0  0
    3.1681  -10.3400    5.1003 C   0  0  1  0  0  0  0  0  0  0  0  0
    3.6305  -11.1579    6.1806 O   0  0  0  0  0  0  0  0  0  0  0  0
    1.6621  -10.6528    4.9558 C   0  0  0  0  0  0  0  0  0  0  0  0
    0.8754  -10.0560    6.1248 C   0  0  0  0  0  0  0  0  0  0  0  0
    1.0130   -8.5430    6.3022 C   0  0  0  0  0  0  0  0  0  0  0  0
    0.2426   -7.8923    5.1462 C   0  0  0  0  0  0  0  0  0  0  0  0
    0.2995   -8.2191    7.6365 C   0  0  0  0  0  0  0  0  0  0  0  0
    2.5440   -8.1959    6.4206 C   0  0  2  0  0  0  0  0  0  0  0  0
    2.8429   -6.6987    6.6360 C   0  0  0  0  0  0  0  0  0  0  0  0
    2.9080   -5.8296    5.3638 C   0  0  1  0  0  0  0  0  0  0  0  0
    3.3704   -4.5900    5.8749 O   0  0  0  0  0  0  0  0  0  0  0  0
    4.6217   -2.9257   -4.5943 H   0  0  0  0  0  0  0  0  0  0  0  0
    5.6380   -3.9758   -3.6398 H   0  0  0  0  0  0  0  0  0  0  0  0
    5.6830   -2.2634   -3.3335 H   0  0  0  0  0  0  0  0  0  0  0  0
    2.0032   -2.2873   -3.2717 H   0  0  0  0  0  0  0  0  0  0  0  0
    2.6216   -1.4231   -1.8699 H   0  0  0  0  0  0  0  0  0  0  0  0
    2.8168   -0.0899   -3.5224 H   0  0  0  0  0  0  0  0  0  0  0  0
    5.0157   -5.6047   -2.2514 H   0  0  0  0  0  0  0  0  0  0  0  0
    5.9937   -4.3539   -1.3460 H   0  0  0  0  0  0  0  0  0  0  0  0
    4.9723   -6.8018   -0.3367 H   0  0  0  0  0  0  0  0  0  0  0  0
    6.7859   -5.6789    0.6714 H   0  0  0  0  0  0  0  0  0  0  0  0
    5.8448   -4.2626    1.0346 H   0  0  0  0  0  0  0  0  0  0  0  0
    5.5345   -7.0790    2.1916 H   0  0  0  0  0  0  0  0  0  0  0  0
    6.2075   -5.7251    3.0469 H   0  0  0  0  0  0  0  0  0  0  0  0
    3.0942   -3.7516    3.4908 H   0  0  0  0  0  0  0  0  0  0  0  0
    4.3656   -3.5550    2.3157 H   0  0  0  0  0  0  0  0  0  0  0  0
    4.8050   -3.9200    3.9204 H   0  0  0  0  0  0  0  0  0  0  0  0
    4.8033   -6.4353    4.6640 H   0  0  0  0  0  0  0  0  0  0  0  0
    2.7866   -9.4435    2.7120 H   0  0  0  0  0  0  0  0  0  0  0  0
    3.7605   -7.9725    0.9756 H   0  0  0  0  0  0  0  0  0  0  0  0
    2.0294   -7.9266    1.1051 H   0  0  0  0  0  0  0  0  0  0  0  0
    0.7898   -5.9851    1.3903 H   0  0  0  0  0  0  0  0  0  0  0  0
    1.3649   -4.6302    2.3758 H   0  0  0  0  0  0  0  0  0  0  0  0
    1.2156   -6.2248    3.0330 H   0  0  0  0  0  0  0  0  0  0  0  0
    2.7813   -6.2559   -0.3235 H   0  0  0  0  0  0  0  0  0  0  0  0
    2.3432   -3.1165    1.3903 H   0  0  0  0  0  0  0  0  0  0  0  0
    2.2090   -2.1870   -0.0179 H   0  0  0  0  0  0  0  0  0  0  0  0
    3.8343   -2.5374    0.5964 H   0  0  0  0  0  0  0  0  0  0  0  0
    0.8525   -4.9696   -0.3973 H   0  0  0  0  0  0  0  0  0  0  0  0
    1.4050   -5.2125   -1.8794 H   0  0  0  0  0  0  0  0  0  0  0  0
    1.0422   -3.5668   -1.6026 H   0  0  0  0  0  0  0  0  0  0  0  0
    5.1389   -9.3635    6.7474 H   0  0  0  0  0  0  0  0  0  0  0  0
    5.3559   -7.7858    6.1072 H   0  0  0  0  0  0  0  0  0  0  0  0
    5.6629   -9.1721    5.0763 H   0  0  0  0  0  0  0  0  0  0  0  0
    3.7033  -10.7034    4.2223 H   0  0  0  0  0  0  0  0  0  0  0  0
    2.8709  -11.5620    6.5916 H   0  0  0  0  0  0  0  0  0  0  0  0
    1.2630  -10.2883    4.0179 H   0  0  0  0  0  0  0  0  0  0  0  0
    1.5320  -11.7400    4.9429 H   0  0  0  0  0  0  0  0  0  0  0  0
   -0.1685  -10.3877    6.0807 H   0  0  0  0  0  0  0  0  0  0  0  0
    1.2983  -10.4097    7.0625 H   0  0  0  0  0  0  0  0  0  0  0  0
    0.1435   -6.8274    5.3019 H   0  0  0  0  0  0  0  0  0  0  0  0
   -0.7591   -8.3265    5.0965 H   0  0  0  0  0  0  0  0  0  0  0  0
    0.7295   -8.0987    4.1999 H   0  0  0  0  0  0  0  0  0  0  0  0
    0.1519   -7.1507    7.7576 H   0  0  0  0  0  0  0  0  0  0  0  0
    0.8549   -8.5858    8.5037 H   0  0  0  0  0  0  0  0  0  0  0  0
   -0.6688   -8.6927    7.6772 H   0  0  0  0  0  0  0  0  0  0  0  0
    2.8580   -8.6726    7.3511 H   0  0  0  0  0  0  0  0  0  0  0  0
    2.1258   -6.2702    7.3211 H   0  0  0  0  0  0  0  0  0  0  0  0
    3.7956   -6.6264    7.1643 H   0  0  0  0  0  0  0  0  0  0  0  0
    1.9085   -5.6552    4.9923 H   0  0  0  0  0  0  0  0  0  0  0  0
    4.2264   -4.7192    6.2406 H   0  0  0  0  0  0  0  0  0  0  0  0
  1  2  1  0
  1 35  1  0
  1 36  1  0
  1 37  1  0
  2  3  1  0
  2  5  2  3
  3  4  1  0
  3 38  1  0
  3 39  1  0
  4 40  1  0
  5 19  1  0
  5  6  1  0
  6  7  1  0
  6 41  1  0
  6 42  1  0
  7 18  1  0
  7  8  1  0
  7 43  1  6
  8  9  1  0
  8 44  1  0
  8 45  1  0
  9 10  1  0
  9 46  1  0
  9 47  1  0
 10 16  1  0
 10 11  1  1
 10 12  1  0
 11 48  1  0
 11 49  1  0
 11 50  1  0
 12 33  1  0
 12 13  1  0
 12 51  1  1
 13 14  2  0
 13 22  1  0
 14 15  1  0
 14 52  1  0
 15 16  1  0
 15 53  1  0
 15 54  1  0
 16 17  1  1
 16 18  1  0
 17 55  1  0
 17 56  1  0
 17 57  1  0
 18 19  1  0
 18 58  1  6
 19 20  1  0
 19 21  1  0
 20 59  1  0
 20 60  1  0
 20 61  1  0
 21 62  1  0
 21 63  1  0
 21 64  1  0
 22 31  1  0
 22 23  1  1
 22 24  1  0
 23 65  1  0
 23 66  1  0
 23 67  1  0
 24 25  1  0
 24 26  1  0
 24 68  1  6
 25 69  1  0
 26 27  1  0
 26 70  1  0
 26 71  1  0
 27 28  1  0
 27 72  1  0
 27 73  1  0
 28 29  1  0
 28 30  1  0
 28 31  1  0
 29 74  1  0
 29 75  1  0
 29 76  1  0
 30 77  1  0
 30 78  1  0
 30 79  1  0
 31 32  1  0
 31 80  1  1
 32 33  1  0
 32 81  1  0
 32 82  1  0
 33 34  1  0
 33 83  1  6
 34 84  1  0
M  END
>  <i_m_ct_stereo_status>  (302) 
1

>  <s_m_source_file>  (302) 
/var/tmp/pbs.5076255.sched01/tmpay8aiv4m/132fzfu5vr2.sdf

>  <i_m_source_file_index>  (302) 
4

>  <i_lp_mmshare_version>  (302) 
48012

>  <i_f3d_flags>  (302) 
0

>  <s_epik_input>  (302) 
W09IXVtDSDJdQyhcW0NIM10pPUMoQzEoW0NIM10pW0NIM10pL1tDSDJdW0NAQEhdKFtDSDJdW0NIMl0yKVtDQEhdMVtDQEBdMyhbQ0gzXSlbQ0gyXVtDSF09QyhbQ0BIXTRbQ0BAXTIzW0NIM10pW0NAQF01KFtDSDNdKVtDQEBIXShbQ0gyXVtDQEhdNFtPSF0pQyhbQ0gzXSkoW0NIM10pW0NIMl1bQ0gyXVtDQEBIXTVbT0hd

>  <s_epik_cmdline>  (302) 
J2VwaWtfcHl0aG9uJywgJy1waHQnLCAnMi4wJywgJy1waCcsICc3LjAnLCAnLXRuJywgJzgnLCAnLW1hJywgJzIwMCcsICctaW1hZScsICc8aW5maWxlLm1hZT4nLCAnLW9tYWUnLCAnPG91dGZpbGUubWFlPic=

>  <r_lp_tautomer_probability>  (302) 
1

>  <r_epik_Ionization_Penalty>  (302) 
3.03144e-06

>  <r_epik_Ionization_Penalty_Charging>  (302) 
0

>  <r_epik_Ionization_Penalty_Neutral>  (302) 
3.03144e-06

>  <r_epik_State_Penalty>  (302) 
-0

>  <r_epik_Charging_Adjusted_Penalty>  (302) 
0

>  <i_epik_Tot_Q>  (302) 
0

>  <i_epik_Tot_abs_Q>  (302) 
0

>  <s_lp_Force_Field>  (302) 
OPLS3e

>  <r_lp_Energy>  (302) 
100.373

>  <b_lp_Chiralities_Consistent>  (302) 
1

>  <s_lp_Variant>  (302) 
83:0-2

>  <s_i_glide_gridfile>  (302) 
pfpi4k_grid

>  <i_i_glide_lignum>  (302) 
4

>  <i_i_glide_rotatable_bonds>  (302) 
4

>  <r_i_docking_score>  (302) 
-1.87037

>  <r_i_glide_ligand_efficiency>  (302) 
-0.0550109

>  <r_i_glide_ligand_efficiency_sa>  (302) 
-0.178214

>  <r_i_glide_ligand_efficiency_ln>  (302) 
-0.413217

>  <r_i_glide_gscore>  (302) 
-1.87037

>  <r_i_glide_lipo>  (302) 
-0.329774

>  <r_i_glide_hbond>  (302) 
-0.16

>  <r_i_glide_metal>  (302) 
-0

>  <r_i_glide_rewards>  (302) 
-0.199589

>  <r_i_glide_evdw>  (302) 
-12.6328

>  <r_i_glide_ecoul>  (302) 
-4.27042

>  <r_i_glide_erotb>  (302) 
0.0911945

>  <r_i_glide_esite>  (302) 
0

>  <r_i_glide_emodel>  (302) 
-13.2892

>  <r_i_glide_energy>  (302) 
-16.9032

>  <r_i_glide_einternal>  (302) 
5.28395

>  <r_i_glide_intrahb_reward>  (302) 
-0

>  <i_i_glide_confnum>  (302) 
4

>  <i_i_glide_posenum>  (302) 
14

>  <r_i_glide_eff_state_penalty>  (302) 
0

>  <ligand_id>  (302) 
83

>  <original_smiles>  (302) 
CC(CO)=C1CC2CCC3(C)C4C(=CCC3(C)C2C1(C)C)C1(C)C(O)CCC(C)(C)C1CC4O

>  <smiles>  (302) 
[H]OC([H])([H])C(=C1C([H])([H])C2([H])C([H])([H])C([H])([H])C3(C([H])([H])[H])C4([H])C(=C([H])C([H])([H])C3(C([H])([H])[H])C2([H])C1(C([H])([H])[H])C([H])([H])[H])C1(C([H])([H])[H])C([H])(O[H])C([H])([H])C([H])([H])C(C([H])([H])[H])(C([H])([H])[H])C1([H])C([H])([H])C4([H])O[H])C([H])([H])[H]

$$$$
84:0:0
     RDKit          3D

 39 42  0  0  1  0  0  0  0  0999 V2000
    7.5038   -4.8363    1.0194 C   0  0  0  0  0  0  0  0  0  0  0  0
    6.8961   -3.6503    0.4452 N   0  0  0  0  0  0  0  0  0  0  0  0
    7.3558   -2.9092   -0.5793 C   0  0  0  0  0  0  0  0  0  0  0  0
    6.6098   -1.8710   -0.9533 N   0  0  0  0  0  0  0  0  0  0  0  0
    5.5549   -1.9347   -0.0470 C   0  0  0  0  0  0  0  0  0  0  0  0
    4.4182   -1.1019    0.1267 C   0  0  0  0  0  0  0  0  0  0  0  0
    3.4791   -1.3643    1.1566 C   0  0  0  0  0  0  0  0  0  0  0  0
    2.3297   -0.5510    1.2823 N   0  0  0  0  0  0  0  0  0  0  0  0
    1.7814   -0.1071    2.4261 C   0  0  0  0  0  0  0  0  0  0  0  0
    2.2888   -0.2765    3.5327 O   0  0  0  0  0  0  0  0  0  0  0  0
    0.4625    0.6552    2.2728 C   0  0  0  0  0  0  0  0  0  0  0  0
   -0.2565    0.7925    3.5299 N   0  0  0  0  0  0  0  0  0  0  0  0
   -0.9276   -0.2304    4.1256 N   0  0  0  0  0  0  0  0  0  0  0  0
   -1.4255    0.2531    5.2224 N   0  0  0  0  0  0  0  0  0  0  0  0
   -1.0409    1.5695    5.2364 C   0  0  0  0  0  0  0  0  0  0  0  0
   -1.3727    2.4822    6.3506 C   0  0  0  0  0  0  0  0  0  0  0  0
   -2.4343    2.2182    7.2449 C   0  0  0  0  0  0  0  0  0  0  0  0
   -2.7113    3.1311    8.2777 C   0  0  0  0  0  0  0  0  0  0  0  0
   -2.0118    4.2656    8.4668 N   0  0  0  0  0  0  0  0  0  0  0  0
   -0.9853    4.5142    7.6329 C   0  0  0  0  0  0  0  0  0  0  0  0
   -0.6345    3.6698    6.5673 C   0  0  0  0  0  0  0  0  0  0  0  0
   -0.3243    1.9619    4.1986 N   0  0  0  0  0  0  0  0  0  0  0  0
    3.6398   -2.4937    1.9847 C   0  0  0  0  0  0  0  0  0  0  0  0
    4.7587   -3.3293    1.8323 C   0  0  0  0  0  0  0  0  0  0  0  0
    5.7077   -3.0458    0.8363 C   0  0  0  0  0  0  0  0  0  0  0  0
    8.4494   -5.0619    0.5263 H   0  0  0  0  0  0  0  0  0  0  0  0
    6.8266   -5.6810    0.9019 H   0  0  0  0  0  0  0  0  0  0  0  0
    7.6890   -4.6742    2.0779 H   0  0  0  0  0  0  0  0  0  0  0  0
    8.2906   -3.1430   -1.0771 H   0  0  0  0  0  0  0  0  0  0  0  0
    4.2886   -0.2621   -0.5383 H   0  0  0  0  0  0  0  0  0  0  0  0
    1.7883   -0.4025    0.4284 H   0  0  0  0  0  0  0  0  0  0  0  0
    0.6873    1.6444    1.8716 H   0  0  0  0  0  0  0  0  0  0  0  0
   -0.1852    0.1592    1.5450 H   0  0  0  0  0  0  0  0  0  0  0  0
   -3.0453    1.3381    7.1268 H   0  0  0  0  0  0  0  0  0  0  0  0
   -3.5245    2.9569    8.9639 H   0  0  0  0  0  0  0  0  0  0  0  0
   -0.4362    5.4244    7.8169 H   0  0  0  0  0  0  0  0  0  0  0  0
    0.1967    3.9273    5.9258 H   0  0  0  0  0  0  0  0  0  0  0  0
    2.8933   -2.7369    2.7304 H   0  0  0  0  0  0  0  0  0  0  0  0
    4.8865   -4.1898    2.4669 H   0  0  0  0  0  0  0  0  0  0  0  0
  1  2  1  0
  1 26  1  0
  1 27  1  0
  1 28  1  0
  2 25  1  0
  2  3  1  0
  3  4  2  0
  3 29  1  0
  4  5  1  0
  5 25  2  0
  5  6  1  0
  6  7  2  0
  6 30  1  0
  7  8  1  0
  7 23  1  0
  8  9  1  0
  8 31  1  0
  9 10  2  0
  9 11  1  0
 11 12  1  0
 11 32  1  0
 11 33  1  0
 12 22  1  0
 12 13  1  0
 13 14  2  0
 14 15  1  0
 15 16  1  0
 15 22  2  0
 16 21  1  0
 16 17  2  0
 17 18  1  0
 17 34  1  0
 18 19  2  0
 18 35  1  0
 19 20  1  0
 20 21  2  0
 20 36  1  0
 21 37  1  0
 23 24  2  0
 23 38  1  0
 24 25  1  0
 24 39  1  0
M  END
>  <i_m_ct_stereo_status>  (303) 
1

>  <s_m_source_file>  (303) 
/var/tmp/pbs.5076255.sched01/tmpay8aiv4m/132fzfu5vr2.sdf

>  <i_m_source_file_index>  (303) 
5

>  <i_lp_mmshare_version>  (303) 
48012

>  <i_f3d_flags>  (303) 
0

>  <s_epik_input>  (303) 
bjFbY0hdbihbQ0gzXSljKGMxMilbY0hdW2NIXWMoW2NIXTIpW05IXUMoPU8pW0NIMl1uM25uYyhuMyktYzRbY0hdW2NIXW5bY0hdW2NIXTQ=

>  <s_epik_cmdline>  (303) 
J2VwaWtfcHl0aG9uJywgJy1waHQnLCAnMi4wJywgJy1waCcsICc3LjAnLCAnLXRuJywgJzgnLCAnLW1hJywgJzIwMCcsICctaW1hZScsICc8aW5maWxlLm1hZT4nLCAnLW9tYWUnLCAnPG91dGZpbGUubWFlPic=

>  <r_lp_tautomer_probability>  (303) 
1

>  <r_epik_Ionization_Penalty>  (303) 
0.0478144

>  <r_epik_Ionization_Penalty_Charging>  (303) 
0

>  <r_epik_Ionization_Penalty_Neutral>  (303) 
0.0478144

>  <r_epik_State_Penalty>  (303) 
0.0406049

>  <r_epik_Charging_Adjusted_Penalty>  (303) 
0.0406049

>  <i_epik_Tot_Q>  (303) 
0

>  <i_epik_Tot_abs_Q>  (303) 
0

>  <s_lp_Force_Field>  (303) 
OPLS3e

>  <r_lp_Energy>  (303) 
30.3324

>  <b_lp_Chiralities_Consistent>  (303) 
1

>  <s_lp_Variant>  (303) 
84:0-1

>  <s_i_glide_gridfile>  (303) 
pfpi4k_grid

>  <i_i_glide_lignum>  (303) 
5

>  <i_i_glide_rotatable_bonds>  (303) 
5

>  <r_i_docking_score>  (303) 
-3.75508

>  <r_i_glide_ligand_efficiency>  (303) 
-0.150203

>  <r_i_glide_ligand_efficiency_sa>  (303) 
-0.439197

>  <r_i_glide_ligand_efficiency_ln>  (303) 
-0.890068

>  <r_i_glide_gscore>  (303) 
-3.75508

>  <r_i_glide_lipo>  (303) 
-0.340177

>  <r_i_glide_hbond>  (303) 
-0.32

>  <r_i_glide_metal>  (303) 
-0

>  <r_i_glide_rewards>  (303) 
-1.33785

>  <r_i_glide_evdw>  (303) 
-27.3148

>  <r_i_glide_ecoul>  (303) 
-6.77986

>  <r_i_glide_erotb>  (303) 
0.843584

>  <r_i_glide_esite>  (303) 
-0.217922

>  <r_i_glide_emodel>  (303) 
-41.0898

>  <r_i_glide_energy>  (303) 
-34.0946

>  <r_i_glide_einternal>  (303) 
4.29079

>  <r_i_glide_intrahb_reward>  (303) 
-0

>  <i_i_glide_confnum>  (303) 
2

>  <i_i_glide_posenum>  (303) 
15

>  <r_i_glide_eff_state_penalty>  (303) 
0

>  <ligand_id>  (303) 
84

>  <original_smiles>  (303) 
Cn1cnc2cc(NC(=O)Cn3nnc(-c4ccncc4)n3)ccc21

>  <smiles>  (303) 
[H]c1nc([H])c([H])c(-c2nnn(C([H])([H])C(=O)N([H])c3c([H])c([H])c4c(nc([H])n4C([H])([H])[H])c3[H])n2)c1[H]

$$$$
84:0:1
     RDKit          3D

 39 42  0  0  1  0  0  0  0  0999 V2000
    5.3297   -5.2717    0.2564 C   0  0  0  0  0  0  0  0  0  0  0  0
    5.5170   -3.8381    0.1570 N   0  0  0  0  0  0  0  0  0  0  0  0
    6.4533   -3.1644   -0.5405 C   0  0  0  0  0  0  0  0  0  0  0  0
    6.4158   -1.8298   -0.4690 N   0  0  0  0  0  0  0  0  0  0  0  0
    5.3257   -1.6213    0.3695 C   0  0  0  0  0  0  0  0  0  0  0  0
    4.7318   -0.4260    0.8501 C   0  0  0  0  0  0  0  0  0  0  0  0
    3.5941   -0.4685    1.6965 C   0  0  0  0  0  0  0  0  0  0  0  0
    3.0121    0.7537    2.1387 N   0  0  0  0  0  0  0  0  0  0  0  0
    1.7159    0.9695    2.4420 C   0  0  0  0  0  0  0  0  0  0  0  0
    0.8396    0.1034    2.4313 O   0  0  0  0  0  0  0  0  0  0  0  0
    1.3487    2.4009    2.8111 C   0  0  0  0  0  0  0  0  0  0  0  0
    0.1434    2.4737    3.6342 N   0  0  0  0  0  0  0  0  0  0  0  0
   -1.1183    2.5073    3.1290 N   0  0  0  0  0  0  0  0  0  0  0  0
   -1.9128    2.5628    4.1496 N   0  0  0  0  0  0  0  0  0  0  0  0
   -1.0976    2.5321    5.2422 C   0  0  0  0  0  0  0  0  0  0  0  0
   -1.6157    2.5394    6.6283 C   0  0  0  0  0  0  0  0  0  0  0  0
   -0.8085    2.1402    7.7127 C   0  0  0  0  0  0  0  0  0  0  0  0
   -1.3343    2.1756    9.0143 C   0  0  0  0  0  0  0  0  0  0  0  0
   -2.5950    2.5642    9.2837 N   0  0  0  0  0  0  0  0  0  0  0  0
   -3.3725    2.9462    8.2554 C   0  0  0  0  0  0  0  0  0  0  0  0
   -2.9394    2.9447    6.9182 C   0  0  0  0  0  0  0  0  0  0  0  0
    0.1986    2.4796    4.9817 N   0  0  0  0  0  0  0  0  0  0  0  0
    3.0751   -1.7224    2.1014 C   0  0  0  0  0  0  0  0  0  0  0  0
    3.6386   -2.9136    1.6285 C   0  0  0  0  0  0  0  0  0  0  0  0
    4.7493   -2.8607    0.7752 C   0  0  0  0  0  0  0  0  0  0  0  0
    6.0950   -5.7971   -0.3101 H   0  0  0  0  0  0  0  0  0  0  0  0
    4.3490   -5.5434   -0.1366 H   0  0  0  0  0  0  0  0  0  0  0  0
    5.3890   -5.5798    1.3011 H   0  0  0  0  0  0  0  0  0  0  0  0
    7.2016   -3.6869   -1.1261 H   0  0  0  0  0  0  0  0  0  0  0  0
    5.1471    0.5184    0.5338 H   0  0  0  0  0  0  0  0  0  0  0  0
    3.6238    1.5599    2.1875 H   0  0  0  0  0  0  0  0  0  0  0  0
    2.1701    2.8766    3.3481 H   0  0  0  0  0  0  0  0  0  0  0  0
    1.1969    2.9502    1.8876 H   0  0  0  0  0  0  0  0  0  0  0  0
    0.2130    1.8175    7.5564 H   0  0  0  0  0  0  0  0  0  0  0  0
   -0.7378    1.8808    9.8628 H   0  0  0  0  0  0  0  0  0  0  0  0
   -4.3747    3.2511    8.5132 H   0  0  0  0  0  0  0  0  0  0  0  0
   -3.6094    3.2553    6.1306 H   0  0  0  0  0  0  0  0  0  0  0  0
    2.2393   -1.8136    2.7768 H   0  0  0  0  0  0  0  0  0  0  0  0
    3.2232   -3.8618    1.9187 H   0  0  0  0  0  0  0  0  0  0  0  0
  1  2  1  0
  1 26  1  0
  1 27  1  0
  1 28  1  0
  2 25  1  0
  2  3  1  0
  3  4  2  0
  3 29  1  0
  4  5  1  0
  5 25  2  0
  5  6  1  0
  6  7  2  0
  6 30  1  0
  7  8  1  0
  7 23  1  0
  8  9  1  0
  8 31  1  0
  9 10  2  0
  9 11  1  0
 11 12  1  0
 11 32  1  0
 11 33  1  0
 12 22  1  0
 12 13  1  0
 13 14  2  0
 14 15  1  0
 15 16  1  0
 15 22  2  0
 16 21  1  0
 16 17  2  0
 17 18  1  0
 17 34  1  0
 18 19  2  0
 18 35  1  0
 19 20  1  0
 20 21  2  0
 20 36  1  0
 21 37  1  0
 23 24  2  0
 23 38  1  0
 24 25  1  0
 24 39  1  0
M  END
>  <i_m_ct_stereo_status>  (304) 
1

>  <s_m_source_file>  (304) 
/var/tmp/pbs.5076255.sched01/tmpay8aiv4m/132fzfu5vr2.sdf

>  <i_m_source_file_index>  (304) 
5

>  <i_lp_mmshare_version>  (304) 
48012

>  <i_f3d_flags>  (304) 
0

>  <s_epik_input>  (304) 
bjFbY0hdbihbQ0gzXSljKGMxMilbY0hdW2NIXWMoW2NIXTIpW05IXUMoPU8pW0NIMl1uM25uYyhuMyktYzRbY0hdW2NIXW5bY0hdW2NIXTQ=

>  <s_epik_cmdline>  (304) 
J2VwaWtfcHl0aG9uJywgJy1waHQnLCAnMi4wJywgJy1waCcsICc3LjAnLCAnLXRuJywgJzgnLCAnLW1hJywgJzIwMCcsICctaW1hZScsICc8aW5maWxlLm1hZT4nLCAnLW9tYWUnLCAnPG91dGZpbGUubWFlPic=

>  <r_lp_tautomer_probability>  (304) 
1

>  <r_epik_Ionization_Penalty>  (304) 
0.0478144

>  <r_epik_Ionization_Penalty_Charging>  (304) 
0

>  <r_epik_Ionization_Penalty_Neutral>  (304) 
0.0478144

>  <r_epik_State_Penalty>  (304) 
0.0406049

>  <r_epik_Charging_Adjusted_Penalty>  (304) 
0.0406049

>  <i_epik_Tot_Q>  (304) 
0

>  <i_epik_Tot_abs_Q>  (304) 
0

>  <s_lp_Force_Field>  (304) 
OPLS3e

>  <r_lp_Energy>  (304) 
30.3324

>  <b_lp_Chiralities_Consistent>  (304) 
1

>  <s_lp_Variant>  (304) 
84:0-1

>  <s_i_glide_gridfile>  (304) 
pfpi4k_grid

>  <i_i_glide_lignum>  (304) 
5

>  <i_i_glide_rotatable_bonds>  (304) 
5

>  <r_i_docking_score>  (304) 
-3.36008

>  <r_i_glide_ligand_efficiency>  (304) 
-0.134403

>  <r_i_glide_ligand_efficiency_sa>  (304) 
-0.392997

>  <r_i_glide_ligand_efficiency_ln>  (304) 
-0.796439

>  <r_i_glide_gscore>  (304) 
-3.36008

>  <r_i_glide_lipo>  (304) 
-0.56576

>  <r_i_glide_hbond>  (304) 
-0.314649

>  <r_i_glide_metal>  (304) 
-0

>  <r_i_glide_rewards>  (304) 
-1.31421

>  <r_i_glide_evdw>  (304) 
-29.8244

>  <r_i_glide_ecoul>  (304) 
-2.4002

>  <r_i_glide_erotb>  (304) 
0.843584

>  <r_i_glide_esite>  (304) 
-0.157794

>  <r_i_glide_emodel>  (304) 
-38.6865

>  <r_i_glide_energy>  (304) 
-32.2246

>  <r_i_glide_einternal>  (304) 
3.5034

>  <r_i_glide_intrahb_reward>  (304) 
-0

>  <i_i_glide_confnum>  (304) 
2

>  <i_i_glide_posenum>  (304) 
10

>  <r_i_glide_eff_state_penalty>  (304) 
0

>  <ligand_id>  (304) 
84

>  <original_smiles>  (304) 
Cn1cnc2cc(NC(=O)Cn3nnc(-c4ccncc4)n3)ccc21

>  <smiles>  (304) 
[H]c1nc([H])c([H])c(-c2nnn(C([H])([H])C(=O)N([H])c3c([H])c([H])c4c(nc([H])n4C([H])([H])[H])c3[H])n2)c1[H]

$$$$
84:0:2
     RDKit          3D

 39 42  0  0  1  0  0  0  0  0999 V2000
    4.8091   -0.5583   -2.2011 C   0  0  0  0  0  0  0  0  0  0  0  0
    3.8737   -1.6407   -2.1376 N   0  0  0  0  0  0  0  0  0  0  0  0
    3.0062   -2.0252   -3.0919 C   0  0  0  0  0  0  0  0  0  0  0  0
    2.2179   -3.0497   -2.7958 N   0  0  0  0  0  0  0  0  0  0  0  0
    2.6241   -3.3588   -1.5049 C   0  0  0  0  0  0  0  0  0  0  0  0
    2.1846   -4.3583   -0.6122 C   0  0  0  0  0  0  0  0  0  0  0  0
    2.7543   -4.5095    0.6777 C   0  0  0  0  0  0  0  0  0  0  0  0
    2.3964   -5.5202    1.6073 N   0  0  0  0  0  0  0  0  0  0  0  0
    1.3863   -6.4094    1.5764 C   0  0  0  0  0  0  0  0  0  0  0  0
    0.4725   -6.4018    0.7520 O   0  0  0  0  0  0  0  0  0  0  0  0
    1.3749   -7.4522    2.6977 C   0  0  0  0  0  0  0  0  0  0  0  0
    1.5038   -6.8355    4.0082 N   0  0  0  0  0  0  0  0  0  0  0  0
    2.7043   -6.6584    4.6161 N   0  0  0  0  0  0  0  0  0  0  0  0
    2.4570   -6.0301    5.7194 N   0  0  0  0  0  0  0  0  0  0  0  0
    1.1031   -5.8399    5.7357 C   0  0  0  0  0  0  0  0  0  0  0  0
    0.4078   -5.1277    6.8331 C   0  0  0  0  0  0  0  0  0  0  0  0
   -1.0001   -5.0581    6.8715 C   0  0  0  0  0  0  0  0  0  0  0  0
   -1.6353   -4.3825    7.9245 C   0  0  0  0  0  0  0  0  0  0  0  0
   -0.9656   -3.7601    8.9115 N   0  0  0  0  0  0  0  0  0  0  0  0
    0.3802   -3.8246    8.8881 C   0  0  0  0  0  0  0  0  0  0  0  0
    1.1081   -4.4853    7.8825 C   0  0  0  0  0  0  0  0  0  0  0  0
    0.4560   -6.3108    4.6772 N   0  0  0  0  0  0  0  0  0  0  0  0
    3.7857   -3.6374    1.0793 C   0  0  0  0  0  0  0  0  0  0  0  0
    4.2393   -2.6277    0.2109 C   0  0  0  0  0  0  0  0  0  0  0  0
    3.6626   -2.4963   -1.0657 C   0  0  0  0  0  0  0  0  0  0  0  0
    4.6818   -0.0322   -3.1433 H   0  0  0  0  0  0  0  0  0  0  0  0
    5.8171   -0.9580   -2.1108 H   0  0  0  0  0  0  0  0  0  0  0  0
    4.6137    0.1322   -1.3831 H   0  0  0  0  0  0  0  0  0  0  0  0
    2.9259   -1.5189   -4.0455 H   0  0  0  0  0  0  0  0  0  0  0  0
    1.4333   -5.0308   -0.9966 H   0  0  0  0  0  0  0  0  0  0  0  0
    2.9897   -5.5772    2.4237 H   0  0  0  0  0  0  0  0  0  0  0  0
    0.4509   -8.0310    2.6716 H   0  0  0  0  0  0  0  0  0  0  0  0
    2.1958   -8.1556    2.5459 H   0  0  0  0  0  0  0  0  0  0  0  0
   -1.5960   -5.5311    6.1061 H   0  0  0  0  0  0  0  0  0  0  0  0
   -2.7109   -4.3299    7.9696 H   0  0  0  0  0  0  0  0  0  0  0  0
    0.8903   -3.3257    9.6982 H   0  0  0  0  0  0  0  0  0  0  0  0
    2.1878   -4.4922    7.9170 H   0  0  0  0  0  0  0  0  0  0  0  0
    4.2400   -3.7475    2.0542 H   0  0  0  0  0  0  0  0  0  0  0  0
    5.0221   -1.9564    0.5183 H   0  0  0  0  0  0  0  0  0  0  0  0
  1  2  1  0
  1 26  1  0
  1 27  1  0
  1 28  1  0
  2 25  1  0
  2  3  1  0
  3  4  2  0
  3 29  1  0
  4  5  1  0
  5 25  2  0
  5  6  1  0
  6  7  2  0
  6 30  1  0
  7  8  1  0
  7 23  1  0
  8  9  1  0
  8 31  1  0
  9 10  2  0
  9 11  1  0
 11 12  1  0
 11 32  1  0
 11 33  1  0
 12 22  1  0
 12 13  1  0
 13 14  2  0
 14 15  1  0
 15 16  1  0
 15 22  2  0
 16 21  1  0
 16 17  2  0
 17 18  1  0
 17 34  1  0
 18 19  2  0
 18 35  1  0
 19 20  1  0
 20 21  2  0
 20 36  1  0
 21 37  1  0
 23 24  2  0
 23 38  1  0
 24 25  1  0
 24 39  1  0
M  END
>  <i_m_ct_stereo_status>  (305) 
1

>  <s_m_source_file>  (305) 
/var/tmp/pbs.5076255.sched01/tmpay8aiv4m/132fzfu5vr2.sdf

>  <i_m_source_file_index>  (305) 
5

>  <i_lp_mmshare_version>  (305) 
48012

>  <i_f3d_flags>  (305) 
0

>  <s_epik_input>  (305) 
bjFbY0hdbihbQ0gzXSljKGMxMilbY0hdW2NIXWMoW2NIXTIpW05IXUMoPU8pW0NIMl1uM25uYyhuMyktYzRbY0hdW2NIXW5bY0hdW2NIXTQ=

>  <s_epik_cmdline>  (305) 
J2VwaWtfcHl0aG9uJywgJy1waHQnLCAnMi4wJywgJy1waCcsICc3LjAnLCAnLXRuJywgJzgnLCAnLW1hJywgJzIwMCcsICctaW1hZScsICc8aW5maWxlLm1hZT4nLCAnLW9tYWUnLCAnPG91dGZpbGUubWFlPic=

>  <r_lp_tautomer_probability>  (305) 
1

>  <r_epik_Ionization_Penalty>  (305) 
0.0478144

>  <r_epik_Ionization_Penalty_Charging>  (305) 
0

>  <r_epik_Ionization_Penalty_Neutral>  (305) 
0.0478144

>  <r_epik_State_Penalty>  (305) 
0.0406049

>  <r_epik_Charging_Adjusted_Penalty>  (305) 
0.0406049

>  <i_epik_Tot_Q>  (305) 
0

>  <i_epik_Tot_abs_Q>  (305) 
0

>  <s_lp_Force_Field>  (305) 
OPLS3e

>  <r_lp_Energy>  (305) 
30.3324

>  <b_lp_Chiralities_Consistent>  (305) 
1

>  <s_lp_Variant>  (305) 
84:0-1

>  <s_i_glide_gridfile>  (305) 
pfpi4k_grid

>  <i_i_glide_lignum>  (305) 
5

>  <i_i_glide_rotatable_bonds>  (305) 
5

>  <r_i_docking_score>  (305) 
-2.69397

>  <r_i_glide_ligand_efficiency>  (305) 
-0.107759

>  <r_i_glide_ligand_efficiency_sa>  (305) 
-0.315088

>  <r_i_glide_ligand_efficiency_ln>  (305) 
-0.63855

>  <r_i_glide_gscore>  (305) 
-2.69397

>  <r_i_glide_lipo>  (305) 
-0.193596

>  <r_i_glide_hbond>  (305) 
-0.256228

>  <r_i_glide_metal>  (305) 
-0

>  <r_i_glide_rewards>  (305) 
-1.16002

>  <r_i_glide_evdw>  (305) 
-24.4597

>  <r_i_glide_ecoul>  (305) 
-3.7979

>  <r_i_glide_erotb>  (305) 
0.843584

>  <r_i_glide_esite>  (305) 
-0.135034

>  <r_i_glide_emodel>  (305) 
-34.5122

>  <r_i_glide_energy>  (305) 
-28.2576

>  <r_i_glide_einternal>  (305) 
0.83697

>  <r_i_glide_intrahb_reward>  (305) 
-0

>  <i_i_glide_confnum>  (305) 
4

>  <i_i_glide_posenum>  (305) 
5

>  <r_i_glide_eff_state_penalty>  (305) 
0

>  <ligand_id>  (305) 
84

>  <original_smiles>  (305) 
Cn1cnc2cc(NC(=O)Cn3nnc(-c4ccncc4)n3)ccc21

>  <smiles>  (305) 
[H]c1nc([H])c([H])c(-c2nnn(C([H])([H])C(=O)N([H])c3c([H])c([H])c4c(nc([H])n4C([H])([H])[H])c3[H])n2)c1[H]

$$$$
84:1:0
     RDKit          3D

 40 43  0  0  1  0  0  0  0  0999 V2000
   -0.1473    4.4925    5.6591 C   0  0  0  0  0  0  0  0  0  0  0  0
   -0.6226    3.4273    4.7698 N   0  0  0  0  0  0  0  0  0  0  0  0
   -1.8830    2.9558    4.5579 C   0  0  0  0  0  0  0  0  0  0  0  0
   -1.7925    1.9630    3.6247 N   0  0  0  0  0  0  0  0  0  0  0  0
   -0.4520    1.7968    3.2474 C   0  0  0  0  0  0  0  0  0  0  0  0
    0.1483    0.9187    2.3460 C   0  0  0  0  0  0  0  0  0  0  0  0
    1.5522    0.9747    2.2131 C   0  0  0  0  0  0  0  0  0  0  0  0
    2.1872    0.0926    1.2816 N   0  0  0  0  0  0  0  0  0  0  0  0
    3.4502   -0.3638    1.3416 C   0  0  0  0  0  0  0  0  0  0  0  0
    4.1554   -0.2792    2.3488 O   0  0  0  0  0  0  0  0  0  0  0  0
    4.0042   -1.0363    0.0815 C   0  0  0  0  0  0  0  0  0  0  0  0
    5.0232   -2.0291    0.3858 N   0  0  0  0  0  0  0  0  0  0  0  0
    6.3419   -1.7344    0.5141 N   0  0  0  0  0  0  0  0  0  0  0  0
    6.9348   -2.8532    0.7789 N   0  0  0  0  0  0  0  0  0  0  0  0
    5.9430   -3.7955    0.7961 C   0  0  0  0  0  0  0  0  0  0  0  0
    6.1952   -5.2280    1.1003 C   0  0  0  0  0  0  0  0  0  0  0  0
    5.1546   -6.1832    1.0143 C   0  0  0  0  0  0  0  0  0  0  0  0
    5.4293   -7.5259    1.3118 C   0  0  0  0  0  0  0  0  0  0  0  0
    6.6463   -7.9654    1.6784 N   0  0  0  0  0  0  0  0  0  0  0  0
    7.6428   -7.0637    1.7636 C   0  0  0  0  0  0  0  0  0  0  0  0
    7.4686   -5.6959    1.4916 C   0  0  0  0  0  0  0  0  0  0  0  0
    4.7255   -3.3381    0.5381 N   0  0  0  0  0  0  0  0  0  0  0  0
    2.2997    1.9423    2.9400 C   0  0  0  0  0  0  0  0  0  0  0  0
    1.6870    2.8333    3.8429 C   0  0  0  0  0  0  0  0  0  0  0  0
    0.3038    2.7351    3.9811 C   0  0  0  0  0  0  0  0  0  0  0  0
   -0.9966    4.8968    6.2084 H   0  0  0  0  0  0  0  0  0  0  0  0
    0.3055    5.2956    5.0719 H   0  0  0  0  0  0  0  0  0  0  0  0
    0.5695    4.0930    6.3807 H   0  0  0  0  0  0  0  0  0  0  0  0
   -2.7870    3.3086    5.0412 H   0  0  0  0  0  0  0  0  0  0  0  0
   -0.4258    0.2202    1.7556 H   0  0  0  0  0  0  0  0  0  0  0  0
    1.6515   -0.1907    0.4611 H   0  0  0  0  0  0  0  0  0  0  0  0
    3.2020   -1.5176   -0.4772 H   0  0  0  0  0  0  0  0  0  0  0  0
    4.4513   -0.2804   -0.5709 H   0  0  0  0  0  0  0  0  0  0  0  0
    4.1568   -5.8922    0.7194 H   0  0  0  0  0  0  0  0  0  0  0  0
    4.6549   -8.2736    1.2441 H   0  0  0  0  0  0  0  0  0  0  0  0
    8.6009   -7.4509    2.0671 H   0  0  0  0  0  0  0  0  0  0  0  0
    8.3066   -5.0198    1.5942 H   0  0  0  0  0  0  0  0  0  0  0  0
    3.3598    2.0413    2.7926 H   0  0  0  0  0  0  0  0  0  0  0  0
    2.2759    3.5615    4.3813 H   0  0  0  0  0  0  0  0  0  0  0  0
   -2.5907    1.4355    3.2684 H   0  0  0  0  0  0  0  0  0  0  0  0
  1  2  1  0
  1 26  1  0
  1 27  1  0
  1 28  1  0
  2 25  1  0
  2  3  1  0
  3  4  2  0
  3 29  1  0
  4  5  1  0
  4 40  1  0
  5 25  2  0
  5  6  1  0
  6  7  2  0
  6 30  1  0
  7  8  1  0
  7 23  1  0
  8  9  1  0
  8 31  1  0
  9 10  2  0
  9 11  1  0
 11 12  1  0
 11 32  1  0
 11 33  1  0
 12 22  1  0
 12 13  1  0
 13 14  2  0
 14 15  1  0
 15 16  1  0
 15 22  2  0
 16 21  1  0
 16 17  2  0
 17 18  1  0
 17 34  1  0
 18 19  2  0
 18 35  1  0
 19 20  1  0
 20 21  2  0
 20 36  1  0
 21 37  1  0
 23 24  2  0
 23 38  1  0
 24 25  1  0
 24 39  1  0
M  CHG  1   4   1
M  END
>  <i_m_ct_stereo_status>  (306) 
1

>  <s_m_source_file>  (306) 
/var/tmp/pbs.5076255.sched01/tmpay8aiv4m/132fzfu5vr2.sdf

>  <i_m_source_file_index>  (306) 
6

>  <i_lp_mmshare_version>  (306) 
48012

>  <i_f3d_flags>  (306) 
0

>  <s_epik_input>  (306) 
bjFbY0hdbihbQ0gzXSljKGMxMilbY0hdW2NIXWMoW2NIXTIpW05IXUMoPU8pW0NIMl1uM25uYyhuMyktYzRbY0hdW2NIXW5bY0hdW2NIXTQ=

>  <s_epik_cmdline>  (306) 
J2VwaWtfcHl0aG9uJywgJy1waHQnLCAnMi4wJywgJy1waCcsICc3LjAnLCAnLXRuJywgJzgnLCAnLW1hJywgJzIwMCcsICctaW1hZScsICc8aW5maWxlLm1hZT4nLCAnLW9tYWUnLCAnPG91dGZpbGUubWFlPic=

>  <r_lp_tautomer_probability>  (306) 
1

>  <r_epik_Ionization_Penalty>  (306) 
1.51697

>  <r_epik_Ionization_Penalty_Charging>  (306) 
1.51682

>  <r_epik_Ionization_Penalty_Neutral>  (306) 
0.00014953

>  <r_epik_State_Penalty>  (306) 
1.60831

>  <r_epik_Charging_Adjusted_Penalty>  (306) 
3.12512

>  <i_epik_Tot_Q>  (306) 
1

>  <i_epik_Tot_abs_Q>  (306) 
1

>  <s_lp_Force_Field>  (306) 
OPLS3e

>  <r_lp_Energy>  (306) 
35.9881

>  <b_lp_Chiralities_Consistent>  (306) 
1

>  <s_lp_Variant>  (306) 
84:0-2

>  <s_i_glide_gridfile>  (306) 
pfpi4k_grid

>  <i_i_glide_lignum>  (306) 
6

>  <i_i_glide_rotatable_bonds>  (306) 
5

>  <r_i_docking_score>  (306) 
-4.05267

>  <r_i_glide_ligand_efficiency>  (306) 
-0.162107

>  <r_i_glide_ligand_efficiency_sa>  (306) 
-0.474003

>  <r_i_glide_ligand_efficiency_ln>  (306) 
-0.960603

>  <r_i_glide_gscore>  (306) 
-4.05267

>  <r_i_glide_lipo>  (306) 
-0.35864

>  <r_i_glide_hbond>  (306) 
-0.16

>  <r_i_glide_metal>  (306) 
-0

>  <r_i_glide_rewards>  (306) 
-1.26873

>  <r_i_glide_evdw>  (306) 
-28.9682

>  <r_i_glide_ecoul>  (306) 
-9.95684

>  <r_i_glide_erotb>  (306) 
0.839102

>  <r_i_glide_esite>  (306) 
-0.162463

>  <r_i_glide_emodel>  (306) 
-47.5142

>  <r_i_glide_energy>  (306) 
-38.9251

>  <r_i_glide_einternal>  (306) 
4.01024

>  <r_i_glide_intrahb_reward>  (306) 
-0

>  <i_i_glide_confnum>  (306) 
3

>  <i_i_glide_posenum>  (306) 
19

>  <r_i_glide_eff_state_penalty>  (306) 
0

>  <ligand_id>  (306) 
84

>  <original_smiles>  (306) 
Cn1cnc2cc(NC(=O)Cn3nnc(-c4ccncc4)n3)ccc21

>  <smiles>  (306) 
[H]c1nc([H])c([H])c(-c2nnn(C([H])([H])C(=O)N([H])c3c([H])c([H])c4c(c3[H])[n+]([H])c([H])n4C([H])([H])[H])n2)c1[H]

$$$$
84:1:1
     RDKit          3D

 40 43  0  0  1  0  0  0  0  0999 V2000
    6.7177   -4.2689    0.5907 C   0  0  0  0  0  0  0  0  0  0  0  0
    5.4668   -3.5770    0.2546 N   0  0  0  0  0  0  0  0  0  0  0  0
    4.5291   -3.8717   -0.6927 C   0  0  0  0  0  0  0  0  0  0  0  0
    3.5475   -2.9286   -0.5903 N   0  0  0  0  0  0  0  0  0  0  0  0
    3.8469   -2.0397    0.4515 C   0  0  0  0  0  0  0  0  0  0  0  0
    3.1505   -0.9408    0.9462 C   0  0  0  0  0  0  0  0  0  0  0  0
    3.7458   -0.2268    2.0163 C   0  0  0  0  0  0  0  0  0  0  0  0
    3.1617    0.9654    2.5187 N   0  0  0  0  0  0  0  0  0  0  0  0
    1.8644    1.2197    2.7614 C   0  0  0  0  0  0  0  0  0  0  0  0
    0.9827    0.3643    2.7012 O   0  0  0  0  0  0  0  0  0  0  0  0
    1.5508    2.6663    3.1819 C   0  0  0  0  0  0  0  0  0  0  0  0
    0.3370    2.7838    3.9780 N   0  0  0  0  0  0  0  0  0  0  0  0
   -0.9027    2.9288    3.4364 N   0  0  0  0  0  0  0  0  0  0  0  0
   -1.7236    3.0086    4.4288 N   0  0  0  0  0  0  0  0  0  0  0  0
   -0.9443    2.8984    5.5498 C   0  0  0  0  0  0  0  0  0  0  0  0
   -1.5204    2.8777    6.9165 C   0  0  0  0  0  0  0  0  0  0  0  0
   -0.6949    2.7891    8.0589 C   0  0  0  0  0  0  0  0  0  0  0  0
   -1.2799    2.7867    9.3359 C   0  0  0  0  0  0  0  0  0  0  0  0
   -2.6081    2.8613    9.5332 N   0  0  0  0  0  0  0  0  0  0  0  0
   -3.3991    2.9576    8.4533 C   0  0  0  0  0  0  0  0  0  0  0  0
   -2.9177    2.9423    7.1346 C   0  0  0  0  0  0  0  0  0  0  0  0
    0.3581    2.7783    5.3283 N   0  0  0  0  0  0  0  0  0  0  0  0
    4.9934   -0.6267    2.5451 C   0  0  0  0  0  0  0  0  0  0  0  0
    5.6847   -1.7472    2.0389 C   0  0  0  0  0  0  0  0  0  0  0  0
    5.0911   -2.4389    0.9859 C   0  0  0  0  0  0  0  0  0  0  0  0
    6.8250   -5.1189   -0.0827 H   0  0  0  0  0  0  0  0  0  0  0  0
    6.6807   -4.6536    1.6145 H   0  0  0  0  0  0  0  0  0  0  0  0
    7.5738   -3.6008    0.4553 H   0  0  0  0  0  0  0  0  0  0  0  0
    4.5562   -4.7041   -1.3884 H   0  0  0  0  0  0  0  0  0  0  0  0
    2.2252   -0.6021    0.5041 H   0  0  0  0  0  0  0  0  0  0  0  0
    3.7976    1.7222    2.7362 H   0  0  0  0  0  0  0  0  0  0  0  0
    2.3723    3.0833    3.7638 H   0  0  0  0  0  0  0  0  0  0  0  0
    1.4541    3.3007    2.3003 H   0  0  0  0  0  0  0  0  0  0  0  0
    0.3812    2.7302    7.9632 H   0  0  0  0  0  0  0  0  0  0  0  0
   -0.6713    2.7235   10.2239 H   0  0  0  0  0  0  0  0  0  0  0  0
   -4.4581    3.0062    8.6551 H   0  0  0  0  0  0  0  0  0  0  0  0
   -3.6105    3.0049    6.3069 H   0  0  0  0  0  0  0  0  0  0  0  0
    5.4354   -0.0462    3.3456 H   0  0  0  0  0  0  0  0  0  0  0  0
    6.6187   -2.0527    2.4546 H   0  0  0  0  0  0  0  0  0  0  0  0
    2.7187   -2.8818   -1.1689 H   0  0  0  0  0  0  0  0  0  0  0  0
  1  2  1  0
  1 26  1  0
  1 27  1  0
  1 28  1  0
  2 25  1  0
  2  3  1  0
  3  4  2  0
  3 29  1  0
  4  5  1  0
  4 40  1  0
  5 25  2  0
  5  6  1  0
  6  7  2  0
  6 30  1  0
  7  8  1  0
  7 23  1  0
  8  9  1  0
  8 31  1  0
  9 10  2  0
  9 11  1  0
 11 12  1  0
 11 32  1  0
 11 33  1  0
 12 22  1  0
 12 13  1  0
 13 14  2  0
 14 15  1  0
 15 16  1  0
 15 22  2  0
 16 21  1  0
 16 17  2  0
 17 18  1  0
 17 34  1  0
 18 19  2  0
 18 35  1  0
 19 20  1  0
 20 21  2  0
 20 36  1  0
 21 37  1  0
 23 24  2  0
 23 38  1  0
 24 25  1  0
 24 39  1  0
M  CHG  1   4   1
M  END
>  <i_m_ct_stereo_status>  (307) 
1

>  <s_m_source_file>  (307) 
/var/tmp/pbs.5076255.sched01/tmpay8aiv4m/132fzfu5vr2.sdf

>  <i_m_source_file_index>  (307) 
6

>  <i_lp_mmshare_version>  (307) 
48012

>  <i_f3d_flags>  (307) 
0

>  <s_epik_input>  (307) 
bjFbY0hdbihbQ0gzXSljKGMxMilbY0hdW2NIXWMoW2NIXTIpW05IXUMoPU8pW0NIMl1uM25uYyhuMyktYzRbY0hdW2NIXW5bY0hdW2NIXTQ=

>  <s_epik_cmdline>  (307) 
J2VwaWtfcHl0aG9uJywgJy1waHQnLCAnMi4wJywgJy1waCcsICc3LjAnLCAnLXRuJywgJzgnLCAnLW1hJywgJzIwMCcsICctaW1hZScsICc8aW5maWxlLm1hZT4nLCAnLW9tYWUnLCAnPG91dGZpbGUubWFlPic=

>  <r_lp_tautomer_probability>  (307) 
1

>  <r_epik_Ionization_Penalty>  (307) 
1.51697

>  <r_epik_Ionization_Penalty_Charging>  (307) 
1.51682

>  <r_epik_Ionization_Penalty_Neutral>  (307) 
0.00014953

>  <r_epik_State_Penalty>  (307) 
1.60831

>  <r_epik_Charging_Adjusted_Penalty>  (307) 
3.12512

>  <i_epik_Tot_Q>  (307) 
1

>  <i_epik_Tot_abs_Q>  (307) 
1

>  <s_lp_Force_Field>  (307) 
OPLS3e

>  <r_lp_Energy>  (307) 
35.9881

>  <b_lp_Chiralities_Consistent>  (307) 
1

>  <s_lp_Variant>  (307) 
84:0-2

>  <s_i_glide_gridfile>  (307) 
pfpi4k_grid

>  <i_i_glide_lignum>  (307) 
6

>  <i_i_glide_rotatable_bonds>  (307) 
5

>  <r_i_docking_score>  (307) 
-3.63776

>  <r_i_glide_ligand_efficiency>  (307) 
-0.14551

>  <r_i_glide_ligand_efficiency_sa>  (307) 
-0.425475

>  <r_i_glide_ligand_efficiency_ln>  (307) 
-0.862258

>  <r_i_glide_gscore>  (307) 
-3.63776

>  <r_i_glide_lipo>  (307) 
-0.637858

>  <r_i_glide_hbond>  (307) 
-0.260623

>  <r_i_glide_metal>  (307) 
-0

>  <r_i_glide_rewards>  (307) 
-1.19626

>  <r_i_glide_evdw>  (307) 
-26.6618

>  <r_i_glide_ecoul>  (307) 
-5.92006

>  <r_i_glide_erotb>  (307) 
0.839102

>  <r_i_glide_esite>  (307) 
-0.161022

>  <r_i_glide_emodel>  (307) 
-40.8799

>  <r_i_glide_energy>  (307) 
-32.5818

>  <r_i_glide_einternal>  (307) 
2.43127

>  <r_i_glide_intrahb_reward>  (307) 
-0

>  <i_i_glide_confnum>  (307) 
1

>  <i_i_glide_posenum>  (307) 
12

>  <r_i_glide_eff_state_penalty>  (307) 
0

>  <ligand_id>  (307) 
84

>  <original_smiles>  (307) 
Cn1cnc2cc(NC(=O)Cn3nnc(-c4ccncc4)n3)ccc21

>  <smiles>  (307) 
[H]c1nc([H])c([H])c(-c2nnn(C([H])([H])C(=O)N([H])c3c([H])c([H])c4c(c3[H])[n+]([H])c([H])n4C([H])([H])[H])n2)c1[H]

$$$$
84:1:2
     RDKit          3D

 40 43  0  0  1  0  0  0  0  0999 V2000
   -2.8383    2.8379    6.3884 C   0  0  0  0  0  0  0  0  0  0  0  0
   -2.1230    2.7378    5.1156 N   0  0  0  0  0  0  0  0  0  0  0  0
   -2.4831    3.1642    3.8706 C   0  0  0  0  0  0  0  0  0  0  0  0
   -1.4638    2.8629    3.0244 N   0  0  0  0  0  0  0  0  0  0  0  0
   -0.4569    2.2094    3.7337 C   0  0  0  0  0  0  0  0  0  0  0  0
    0.7567    1.7123    3.2943 C   0  0  0  0  0  0  0  0  0  0  0  0
    1.5892    1.0843    4.2649 C   0  0  0  0  0  0  0  0  0  0  0  0
    2.8540    0.4948    3.9732 N   0  0  0  0  0  0  0  0  0  0  0  0
    3.4443    0.3228    2.7798 C   0  0  0  0  0  0  0  0  0  0  0  0
    3.0314    0.8268    1.7376 O   0  0  0  0  0  0  0  0  0  0  0  0
    4.7361   -0.5205    2.7883 C   0  0  0  0  0  0  0  0  0  0  0  0
    4.8369   -1.4623    1.6765 N   0  0  0  0  0  0  0  0  0  0  0  0
    5.3180   -2.7241    1.8367 N   0  0  0  0  0  0  0  0  0  0  0  0
    5.2373   -3.2895    0.6767 N   0  0  0  0  0  0  0  0  0  0  0  0
    4.7318   -2.3259   -0.1528 C   0  0  0  0  0  0  0  0  0  0  0  0
    4.4030   -2.5544   -1.5702 C   0  0  0  0  0  0  0  0  0  0  0  0
    4.9593   -3.6374   -2.2836 C   0  0  0  0  0  0  0  0  0  0  0  0
    4.6142   -3.8013   -3.6393 C   0  0  0  0  0  0  0  0  0  0  0  0
    3.8038   -2.9658   -4.3111 N   0  0  0  0  0  0  0  0  0  0  0  0
    3.2592   -1.9422   -3.6298 C   0  0  0  0  0  0  0  0  0  0  0  0
    3.5274   -1.6916   -2.2723 C   0  0  0  0  0  0  0  0  0  0  0  0
    4.5573   -1.1405    0.4015 N   0  0  0  0  0  0  0  0  0  0  0  0
    1.1688    1.0020    5.6105 C   0  0  0  0  0  0  0  0  0  0  0  0
   -0.0701    1.5198    6.0472 C   0  0  0  0  0  0  0  0  0  0  0  0
   -0.8702    2.1209    5.0768 C   0  0  0  0  0  0  0  0  0  0  0  0
   -3.7836    3.3301    6.1814 H   0  0  0  0  0  0  0  0  0  0  0  0
   -2.2805    3.4490    7.1028 H   0  0  0  0  0  0  0  0  0  0  0  0
   -3.0309    1.8432    6.8010 H   0  0  0  0  0  0  0  0  0  0  0  0
   -3.4003    3.6677    3.6023 H   0  0  0  0  0  0  0  0  0  0  0  0
    1.0061    1.8219    2.2473 H   0  0  0  0  0  0  0  0  0  0  0  0
    3.3658    0.1108    4.7559 H   0  0  0  0  0  0  0  0  0  0  0  0
    5.6148    0.1194    2.7803 H   0  0  0  0  0  0  0  0  0  0  0  0
    4.7940   -1.0900    3.7161 H   0  0  0  0  0  0  0  0  0  0  0  0
    5.6225   -4.3346   -1.7927 H   0  0  0  0  0  0  0  0  0  0  0  0
    5.0099   -4.6272   -4.2050 H   0  0  0  0  0  0  0  0  0  0  0  0
    2.5995   -1.3010   -4.1878 H   0  0  0  0  0  0  0  0  0  0  0  0
    3.0494   -0.8536   -1.7798 H   0  0  0  0  0  0  0  0  0  0  0  0
    1.8194    0.5212    6.3257 H   0  0  0  0  0  0  0  0  0  0  0  0
   -0.3630    1.4538    7.0846 H   0  0  0  0  0  0  0  0  0  0  0  0
   -1.4176    3.1076    2.0387 H   0  0  0  0  0  0  0  0  0  0  0  0
  1  2  1  0
  1 26  1  0
  1 27  1  0
  1 28  1  0
  2 25  1  0
  2  3  1  0
  3  4  2  0
  3 29  1  0
  4  5  1  0
  4 40  1  0
  5 25  2  0
  5  6  1  0
  6  7  2  0
  6 30  1  0
  7  8  1  0
  7 23  1  0
  8  9  1  0
  8 31  1  0
  9 10  2  0
  9 11  1  0
 11 12  1  0
 11 32  1  0
 11 33  1  0
 12 22  1  0
 12 13  1  0
 13 14  2  0
 14 15  1  0
 15 16  1  0
 15 22  2  0
 16 21  1  0
 16 17  2  0
 17 18  1  0
 17 34  1  0
 18 19  2  0
 18 35  1  0
 19 20  1  0
 20 21  2  0
 20 36  1  0
 21 37  1  0
 23 24  2  0
 23 38  1  0
 24 25  1  0
 24 39  1  0
M  CHG  1   4   1
M  END
>  <i_m_ct_stereo_status>  (308) 
1

>  <s_m_source_file>  (308) 
/var/tmp/pbs.5076255.sched01/tmpay8aiv4m/132fzfu5vr2.sdf

>  <i_m_source_file_index>  (308) 
6

>  <i_lp_mmshare_version>  (308) 
48012

>  <i_f3d_flags>  (308) 
0

>  <s_epik_input>  (308) 
bjFbY0hdbihbQ0gzXSljKGMxMilbY0hdW2NIXWMoW2NIXTIpW05IXUMoPU8pW0NIMl1uM25uYyhuMyktYzRbY0hdW2NIXW5bY0hdW2NIXTQ=

>  <s_epik_cmdline>  (308) 
J2VwaWtfcHl0aG9uJywgJy1waHQnLCAnMi4wJywgJy1waCcsICc3LjAnLCAnLXRuJywgJzgnLCAnLW1hJywgJzIwMCcsICctaW1hZScsICc8aW5maWxlLm1hZT4nLCAnLW9tYWUnLCAnPG91dGZpbGUubWFlPic=

>  <r_lp_tautomer_probability>  (308) 
1

>  <r_epik_Ionization_Penalty>  (308) 
1.51697

>  <r_epik_Ionization_Penalty_Charging>  (308) 
1.51682

>  <r_epik_Ionization_Penalty_Neutral>  (308) 
0.00014953

>  <r_epik_State_Penalty>  (308) 
1.60831

>  <r_epik_Charging_Adjusted_Penalty>  (308) 
3.12512

>  <i_epik_Tot_Q>  (308) 
1

>  <i_epik_Tot_abs_Q>  (308) 
1

>  <s_lp_Force_Field>  (308) 
OPLS3e

>  <r_lp_Energy>  (308) 
35.9881

>  <b_lp_Chiralities_Consistent>  (308) 
1

>  <s_lp_Variant>  (308) 
84:0-2

>  <s_i_glide_gridfile>  (308) 
pfpi4k_grid

>  <i_i_glide_lignum>  (308) 
6

>  <i_i_glide_rotatable_bonds>  (308) 
5

>  <r_i_docking_score>  (308) 
-3.36115

>  <r_i_glide_ligand_efficiency>  (308) 
-0.134446

>  <r_i_glide_ligand_efficiency_sa>  (308) 
-0.393123

>  <r_i_glide_ligand_efficiency_ln>  (308) 
-0.796694

>  <r_i_glide_gscore>  (308) 
-3.36115

>  <r_i_glide_lipo>  (308) 
-0.62316

>  <r_i_glide_hbond>  (308) 
-0.304038

>  <r_i_glide_metal>  (308) 
-0

>  <r_i_glide_rewards>  (308) 
-1.22766

>  <r_i_glide_evdw>  (308) 
-30.8005

>  <r_i_glide_ecoul>  (308) 
-2.56016

>  <r_i_glide_erotb>  (308) 
0.839102

>  <r_i_glide_esite>  (308) 
-0.121345

>  <r_i_glide_emodel>  (308) 
-40.0404

>  <r_i_glide_energy>  (308) 
-33.3607

>  <r_i_glide_einternal>  (308) 
3.74553

>  <r_i_glide_intrahb_reward>  (308) 
-0

>  <i_i_glide_confnum>  (308) 
1

>  <i_i_glide_posenum>  (308) 
5

>  <r_i_glide_eff_state_penalty>  (308) 
0

>  <ligand_id>  (308) 
84

>  <original_smiles>  (308) 
Cn1cnc2cc(NC(=O)Cn3nnc(-c4ccncc4)n3)ccc21

>  <smiles>  (308) 
[H]c1nc([H])c([H])c(-c2nnn(C([H])([H])C(=O)N([H])c3c([H])c([H])c4c(c3[H])[n+]([H])c([H])n4C([H])([H])[H])n2)c1[H]

$$$$
85:0:0
     RDKit          3D

 41 45  0  0  1  0  0  0  0  0999 V2000
    6.6673   -3.3699   -1.5101 O   0  0  0  0  0  0  0  0  0  0  0  0
    5.6466   -2.9308   -0.9870 C   0  0  0  0  0  0  0  0  0  0  0  0
    4.8334   -1.7127   -1.4217 C   0  0  1  0  0  0  0  0  0  0  0  0
    3.4739   -2.2519   -1.9380 C   0  0  1  0  0  0  0  0  0  0  0  0
    3.5069   -3.2889   -3.0798 C   0  0  0  0  0  0  0  0  0  0  0  0
    3.7413   -2.6289   -4.3029 O   0  0  0  0  0  0  0  0  0  0  0  0
    2.9035   -2.8420   -0.7489 O   0  0  0  0  0  0  0  0  0  0  0  0
    3.7774   -2.5485    0.3049 C   0  0  1  0  0  0  0  0  0  0  0  0
    3.1768   -2.7610    1.6475 C   0  0  0  0  0  0  0  0  0  0  0  0
    2.0546   -2.1195    2.1284 N   0  0  0  0  0  0  0  0  0  0  0  0
    1.7865   -2.5477    3.4106 C   0  0  0  0  0  0  0  0  0  0  0  0
    0.7720   -2.2173    4.3274 C   0  0  0  0  0  0  0  0  0  0  0  0
    0.7512   -2.8229    5.5959 C   0  0  0  0  0  0  0  0  0  0  0  0
    1.7496   -3.7575    5.9434 C   0  0  0  0  0  0  0  0  0  0  0  0
    2.7636   -4.0846    5.0160 C   0  0  0  0  0  0  0  0  0  0  0  0
    2.8055   -3.4988    3.7322 C   0  0  0  0  0  0  0  0  0  0  0  0
    3.6724   -3.6199    2.5901 C   0  0  0  0  0  0  0  0  0  0  0  0
    4.9028   -4.4677    2.3501 C   0  0  0  0  0  0  0  0  0  0  0  0
    5.1529   -4.7022    0.8350 C   0  0  0  0  0  0  0  0  0  0  0  0
    4.9558   -3.4225    0.1048 N   0  0  0  0  0  0  0  0  0  0  0  0
    4.3254   -1.1758   -0.0823 C   0  0  1  0  0  0  0  0  0  0  0  0
    5.3365   -0.5980    0.9469 C   0  0  0  0  0  0  0  0  0  0  0  0
    6.6809   -0.6590    0.5262 O   0  0  0  0  0  0  0  0  0  0  0  0
    1.5253   -1.4600    1.5666 H   0  0  0  0  0  0  0  0  0  0  0  0
    5.3499   -1.0046   -2.0678 H   0  0  0  0  0  0  0  0  0  0  0  0
    2.8314   -1.4148   -2.2178 H   0  0  0  0  0  0  0  0  0  0  0  0
    4.2431   -4.0770   -2.9214 H   0  0  0  0  0  0  0  0  0  0  0  0
    2.5386   -3.7907   -3.1357 H   0  0  0  0  0  0  0  0  0  0  0  0
    2.9510   -2.1540   -4.5177 H   0  0  0  0  0  0  0  0  0  0  0  0
    0.0252   -1.4986    4.0378 H   0  0  0  0  0  0  0  0  0  0  0  0
   -0.0245   -2.5659    6.3060 H   0  0  0  0  0  0  0  0  0  0  0  0
    1.7491   -4.2279    6.9172 H   0  0  0  0  0  0  0  0  0  0  0  0
    3.5279   -4.8021    5.2800 H   0  0  0  0  0  0  0  0  0  0  0  0
    5.7738   -3.9520    2.7471 H   0  0  0  0  0  0  0  0  0  0  0  0
    4.8382   -5.4148    2.8810 H   0  0  0  0  0  0  0  0  0  0  0  0
    6.1219   -5.1628    0.6299 H   0  0  0  0  0  0  0  0  0  0  0  0
    4.3955   -5.3939    0.4618 H   0  0  0  0  0  0  0  0  0  0  0  0
    3.4801   -0.4906   -0.1724 H   0  0  0  0  0  0  0  0  0  0  0  0
    5.0817    0.4461    1.1119 H   0  0  0  0  0  0  0  0  0  0  0  0
    5.2462   -1.0746    1.9217 H   0  0  0  0  0  0  0  0  0  0  0  0
    7.1966   -0.0606    1.0634 H   0  0  0  0  0  0  0  0  0  0  0  0
  1  2  2  0
  2 20  1  0
  2  3  1  0
  3 21  1  0
  3  4  1  0
  3 25  1  6
  4  5  1  0
  4  7  1  0
  4 26  1  6
  5  6  1  0
  5 27  1  0
  5 28  1  0
  6 29  1  0
  8  7  1  6
  8 20  1  0
  8  9  1  0
  8 21  1  0
  9 17  2  0
  9 10  1  0
 10 24  1  0
 10 11  1  0
 11 16  2  0
 11 12  1  0
 12 13  2  0
 12 30  1  0
 13 14  1  0
 13 31  1  0
 14 15  2  0
 14 32  1  0
 15 16  1  0
 15 33  1  0
 16 17  1  0
 17 18  1  0
 18 19  1  0
 18 34  1  0
 18 35  1  0
 19 20  1  0
 19 36  1  0
 19 37  1  0
 21 22  1  0
 21 38  1  6
 22 23  1  0
 22 39  1  0
 22 40  1  0
 23 41  1  0
M  END
>  <i_m_ct_stereo_status>  (309) 
1

>  <s_m_source_file>  (309) 
/var/tmp/pbs.5076255.sched01/tmpay8aiv4m/132fzfu5vr2.sdf

>  <i_m_source_file_index>  (309) 
7

>  <i_lp_mmshare_version>  (309) 
48012

>  <i_f3d_flags>  (309) 
0

>  <s_epik_input>  (309) 
W09IXVtDSDJdW0NAQEhdKE8xKVtDQEBIXShbQ0BASF0yW0NIMl1bT0hdKUMoPU8pTjNbQ0gyXVtDSDJdYyhjNFtDQEBdMTIzKWM1YyhbbkhdNClbY0hdW2NIXVtjSF1bY0hdNQ==

>  <s_epik_cmdline>  (309) 
J2VwaWtfcHl0aG9uJywgJy1waHQnLCAnMi4wJywgJy1waCcsICc3LjAnLCAnLXRuJywgJzgnLCAnLW1hJywgJzIwMCcsICctaW1hZScsICc8aW5maWxlLm1hZT4nLCAnLW9tYWUnLCAnPG91dGZpbGUubWFlPic=

>  <r_lp_tautomer_probability>  (309) 
1

>  <r_epik_Ionization_Penalty>  (309) 
2.20916e-07

>  <r_epik_Ionization_Penalty_Charging>  (309) 
0

>  <r_epik_Ionization_Penalty_Neutral>  (309) 
2.20916e-07

>  <r_epik_State_Penalty>  (309) 
-0

>  <r_epik_Charging_Adjusted_Penalty>  (309) 
0

>  <i_epik_Tot_Q>  (309) 
0

>  <i_epik_Tot_abs_Q>  (309) 
0

>  <s_lp_Force_Field>  (309) 
OPLS3e

>  <r_lp_Energy>  (309) 
26.6351

>  <b_lp_Chiralities_Consistent>  (309) 
1

>  <s_lp_Variant>  (309) 
85:0-1

>  <s_i_glide_gridfile>  (309) 
pfpi4k_grid

>  <i_i_glide_lignum>  (309) 
7

>  <i_i_glide_rotatable_bonds>  (309) 
4

>  <r_i_docking_score>  (309) 
-4.09851

>  <r_i_glide_ligand_efficiency>  (309) 
-0.178196

>  <r_i_glide_ligand_efficiency_sa>  (309) 
-0.506766

>  <r_i_glide_ligand_efficiency_ln>  (309) 
-0.991057

>  <r_i_glide_gscore>  (309) 
-4.09851

>  <r_i_glide_lipo>  (309) 
-0.299376

>  <r_i_glide_hbond>  (309) 
-0.313812

>  <r_i_glide_metal>  (309) 
-0

>  <r_i_glide_rewards>  (309) 
-1.34611

>  <r_i_glide_evdw>  (309) 
-19.8483

>  <r_i_glide_ecoul>  (309) 
-9.84969

>  <r_i_glide_erotb>  (309) 
0.376227

>  <r_i_glide_esite>  (309) 
-0.0455711

>  <r_i_glide_emodel>  (309) 
-33.7405

>  <r_i_glide_energy>  (309) 
-29.698

>  <r_i_glide_einternal>  (309) 
7.32293

>  <r_i_glide_intrahb_reward>  (309) 
-0

>  <i_i_glide_confnum>  (309) 
5

>  <i_i_glide_posenum>  (309) 
37

>  <r_i_glide_eff_state_penalty>  (309) 
0

>  <ligand_id>  (309) 
85

>  <original_smiles>  (309) 
O=C1C2C(CO)OC3(c4[nH]c5ccccc5c4CCN13)C2CO

>  <smiles>  (309) 
[H]OC([H])([H])C1([H])OC23c4c(c5c([H])c([H])c([H])c([H])c5n4[H])C([H])([H])C([H])([H])N2C(=O)C1([H])C3([H])C([H])([H])O[H]

$$$$
85:0:1
     RDKit          3D

 41 45  0  0  1  0  0  0  0  0999 V2000
    5.0646   -4.7575   -0.8109 O   0  0  0  0  0  0  0  0  0  0  0  0
    4.9139   -3.5545   -0.6186 C   0  0  0  0  0  0  0  0  0  0  0  0
    5.7471   -2.4017   -1.1372 C   0  0  1  0  0  0  0  0  0  0  0  0
    4.8322   -1.6060   -2.1219 C   0  0  1  0  0  0  0  0  0  0  0  0
    4.1705   -2.3941   -3.2761 C   0  0  0  0  0  0  0  0  0  0  0  0
    3.8359   -1.4972   -4.3192 O   0  0  0  0  0  0  0  0  0  0  0  0
    3.8032   -1.0906   -1.2520 O   0  0  0  0  0  0  0  0  0  0  0  0
    4.1292   -1.4795    0.0537 C   0  0  1  0  0  0  0  0  0  0  0  0
    3.3531   -0.8156    1.1129 C   0  0  0  0  0  0  0  0  0  0  0  0
    3.3305    0.5446    1.3112 N   0  0  0  0  0  0  0  0  0  0  0  0
    2.5238    0.8540    2.3771 C   0  0  0  0  0  0  0  0  0  0  0  0
    2.1666    2.0745    2.9610 C   0  0  0  0  0  0  0  0  0  0  0  0
    1.3176    2.1015    4.0819 C   0  0  0  0  0  0  0  0  0  0  0  0
    0.8322    0.8755    4.6091 C   0  0  0  0  0  0  0  0  0  0  0  0
    1.1977   -0.3526    4.0074 C   0  0  0  0  0  0  0  0  0  0  0  0
    2.0454   -0.3977    2.8743 C   0  0  0  0  0  0  0  0  0  0  0  0
    2.5902   -1.4400    2.0455 C   0  0  0  0  0  0  0  0  0  0  0  0
    2.4213   -2.9407    2.0980 C   0  0  0  0  0  0  0  0  0  0  0  0
    2.6957   -3.5838    0.7134 C   0  0  0  0  0  0  0  0  0  0  0  0
    3.8998   -2.9658    0.1136 N   0  0  0  0  0  0  0  0  0  0  0  0
    5.6582   -1.4002    0.0243 C   0  0  1  0  0  0  0  0  0  0  0  0
    6.3083   -1.7529    1.3887 C   0  0  0  0  0  0  0  0  0  0  0  0
    6.2168   -0.6570    2.2800 O   0  0  0  0  0  0  0  0  0  0  0  0
    3.8387    1.1981    0.7283 H   0  0  0  0  0  0  0  0  0  0  0  0
    6.7337   -2.6630   -1.4913 H   0  0  0  0  0  0  0  0  0  0  0  0
    5.4024   -0.7646   -2.5136 H   0  0  0  0  0  0  0  0  0  0  0  0
    4.8726   -3.1160   -3.6856 H   0  0  0  0  0  0  0  0  0  0  0  0
    3.2768   -2.9382   -2.9567 H   0  0  0  0  0  0  0  0  0  0  0  0
    3.1350   -0.9527   -4.0144 H   0  0  0  0  0  0  0  0  0  0  0  0
    2.5449    2.9926    2.5338 H   0  0  0  0  0  0  0  0  0  0  0  0
    1.0461    3.0359    4.5286 H   0  0  0  0  0  0  0  0  0  0  0  0
    0.1886    0.8771    5.4644 H   0  0  0  0  0  0  0  0  0  0  0  0
    0.8299   -1.2862    4.4039 H   0  0  0  0  0  0  0  0  0  0  0  0
    3.1485   -3.3546    2.8000 H   0  0  0  0  0  0  0  0  0  0  0  0
    1.4415   -3.2170    2.4764 H   0  0  0  0  0  0  0  0  0  0  0  0
    2.7491   -4.6710    0.7516 H   0  0  0  0  0  0  0  0  0  0  0  0
    1.8745   -3.3307    0.0411 H   0  0  0  0  0  0  0  0  0  0  0  0
    5.9509   -0.3885   -0.2713 H   0  0  0  0  0  0  0  0  0  0  0  0
    5.8809   -2.6309    1.8704 H   0  0  0  0  0  0  0  0  0  0  0  0
    7.3679   -1.9606    1.2335 H   0  0  0  0  0  0  0  0  0  0  0  0
    6.8791   -0.0198    2.0717 H   0  0  0  0  0  0  0  0  0  0  0  0
  1  2  2  0
  2 20  1  0
  2  3  1  0
  3 21  1  0
  3  4  1  0
  3 25  1  6
  4  5  1  0
  4  7  1  0
  4 26  1  6
  5  6  1  0
  5 27  1  0
  5 28  1  0
  6 29  1  0
  8  7  1  6
  8 20  1  0
  8  9  1  0
  8 21  1  0
  9 17  2  0
  9 10  1  0
 10 24  1  0
 10 11  1  0
 11 16  2  0
 11 12  1  0
 12 13  2  0
 12 30  1  0
 13 14  1  0
 13 31  1  0
 14 15  2  0
 14 32  1  0
 15 16  1  0
 15 33  1  0
 16 17  1  0
 17 18  1  0
 18 19  1  0
 18 34  1  0
 18 35  1  0
 19 20  1  0
 19 36  1  0
 19 37  1  0
 21 22  1  0
 21 38  1  6
 22 23  1  0
 22 39  1  0
 22 40  1  0
 23 41  1  0
M  END
>  <i_m_ct_stereo_status>  (310) 
1

>  <s_m_source_file>  (310) 
/var/tmp/pbs.5076255.sched01/tmpay8aiv4m/132fzfu5vr2.sdf

>  <i_m_source_file_index>  (310) 
7

>  <i_lp_mmshare_version>  (310) 
48012

>  <i_f3d_flags>  (310) 
0

>  <s_epik_input>  (310) 
W09IXVtDSDJdW0NAQEhdKE8xKVtDQEBIXShbQ0BASF0yW0NIMl1bT0hdKUMoPU8pTjNbQ0gyXVtDSDJdYyhjNFtDQEBdMTIzKWM1YyhbbkhdNClbY0hdW2NIXVtjSF1bY0hdNQ==

>  <s_epik_cmdline>  (310) 
J2VwaWtfcHl0aG9uJywgJy1waHQnLCAnMi4wJywgJy1waCcsICc3LjAnLCAnLXRuJywgJzgnLCAnLW1hJywgJzIwMCcsICctaW1hZScsICc8aW5maWxlLm1hZT4nLCAnLW9tYWUnLCAnPG91dGZpbGUubWFlPic=

>  <r_lp_tautomer_probability>  (310) 
1

>  <r_epik_Ionization_Penalty>  (310) 
2.20916e-07

>  <r_epik_Ionization_Penalty_Charging>  (310) 
0

>  <r_epik_Ionization_Penalty_Neutral>  (310) 
2.20916e-07

>  <r_epik_State_Penalty>  (310) 
-0

>  <r_epik_Charging_Adjusted_Penalty>  (310) 
0

>  <i_epik_Tot_Q>  (310) 
0

>  <i_epik_Tot_abs_Q>  (310) 
0

>  <s_lp_Force_Field>  (310) 
OPLS3e

>  <r_lp_Energy>  (310) 
26.6351

>  <b_lp_Chiralities_Consistent>  (310) 
1

>  <s_lp_Variant>  (310) 
85:0-1

>  <s_i_glide_gridfile>  (310) 
pfpi4k_grid

>  <i_i_glide_lignum>  (310) 
7

>  <i_i_glide_rotatable_bonds>  (310) 
4

>  <r_i_docking_score>  (310) 
-3.58316

>  <r_i_glide_ligand_efficiency>  (310) 
-0.15579

>  <r_i_glide_ligand_efficiency_sa>  (310) 
-0.443045

>  <r_i_glide_ligand_efficiency_ln>  (310) 
-0.866441

>  <r_i_glide_gscore>  (310) 
-3.58316

>  <r_i_glide_lipo>  (310) 
-0.320669

>  <r_i_glide_hbond>  (310) 
-0.305568

>  <r_i_glide_metal>  (310) 
-0

>  <r_i_glide_rewards>  (310) 
-1.33149

>  <r_i_glide_evdw>  (310) 
-24.8919

>  <r_i_glide_ecoul>  (310) 
-4.81829

>  <r_i_glide_erotb>  (310) 
0.376227

>  <r_i_glide_esite>  (310) 
-0.0343273

>  <r_i_glide_emodel>  (310) 
-35.3458

>  <r_i_glide_energy>  (310) 
-29.7101

>  <r_i_glide_einternal>  (310) 
1.57799

>  <r_i_glide_intrahb_reward>  (310) 
-0

>  <i_i_glide_confnum>  (310) 
3

>  <i_i_glide_posenum>  (310) 
6

>  <r_i_glide_eff_state_penalty>  (310) 
0

>  <ligand_id>  (310) 
85

>  <original_smiles>  (310) 
O=C1C2C(CO)OC3(c4[nH]c5ccccc5c4CCN13)C2CO

>  <smiles>  (310) 
[H]OC([H])([H])C1([H])OC23c4c(c5c([H])c([H])c([H])c([H])c5n4[H])C([H])([H])C([H])([H])N2C(=O)C1([H])C3([H])C([H])([H])O[H]

$$$$
85:0:2
     RDKit          3D

 41 45  0  0  1  0  0  0  0  0999 V2000
    5.9019   -4.6884    0.0475 O   0  0  0  0  0  0  0  0  0  0  0  0
    5.4129   -3.5574    0.0774 C   0  0  0  0  0  0  0  0  0  0  0  0
    5.9779   -2.2769   -0.4918 C   0  0  1  0  0  0  0  0  0  0  0  0
    5.0314   -1.8417   -1.6616 C   0  0  1  0  0  0  0  0  0  0  0  0
    4.7472   -2.8857   -2.7669 C   0  0  0  0  0  0  0  0  0  0  0  0
    4.2081   -2.2270   -3.9034 O   0  0  0  0  0  0  0  0  0  0  0  0
    3.8013   -1.5550   -0.9681 O   0  0  0  0  0  0  0  0  0  0  0  0
    4.0423   -1.7048    0.4001 C   0  0  1  0  0  0  0  0  0  0  0  0
    2.9902   -1.1729    1.2786 C   0  0  0  0  0  0  0  0  0  0  0  0
    2.6138    0.1551    1.3054 N   0  0  0  0  0  0  0  0  0  0  0  0
    1.6193    0.3404    2.2384 C   0  0  0  0  0  0  0  0  0  0  0  0
    0.8892    1.4691    2.6248 C   0  0  0  0  0  0  0  0  0  0  0  0
   -0.0768    1.3718    3.6415 C   0  0  0  0  0  0  0  0  0  0  0  0
   -0.3004    0.1172    4.2725 C   0  0  0  0  0  0  0  0  0  0  0  0
    0.4442   -1.0177    3.8743 C   0  0  0  0  0  0  0  0  0  0  0  0
    1.4151   -0.9447    2.8445 C   0  0  0  0  0  0  0  0  0  0  0  0
    2.3046   -1.8787    2.2120 C   0  0  0  0  0  0  0  0  0  0  0  0
    2.5080   -3.3573    2.4312 C   0  0  0  0  0  0  0  0  0  0  0  0
    3.1142   -4.0427    1.1768 C   0  0  0  0  0  0  0  0  0  0  0  0
    4.1902   -3.1897    0.6284 N   0  0  0  0  0  0  0  0  0  0  0  0
    5.4910   -1.2307    0.5237 C   0  0  1  0  0  0  0  0  0  0  0  0
    6.0236   -1.2790    1.9810 C   0  0  0  0  0  0  0  0  0  0  0  0
    5.4235   -0.2745    2.7792 O   0  0  0  0  0  0  0  0  0  0  0  0
    2.9750    0.8491    0.6721 H   0  0  0  0  0  0  0  0  0  0  0  0
    7.0365   -2.2878   -0.7021 H   0  0  0  0  0  0  0  0  0  0  0  0
    5.4169   -0.9214   -2.1004 H   0  0  0  0  0  0  0  0  0  0  0  0
    5.6763   -3.3708   -3.0696 H   0  0  0  0  0  0  0  0  0  0  0  0
    4.0557   -3.6619   -2.4416 H   0  0  0  0  0  0  0  0  0  0  0  0
    3.3849   -1.8505   -3.6524 H   0  0  0  0  0  0  0  0  0  0  0  0
    1.0630    2.4161    2.1278 H   0  0  0  0  0  0  0  0  0  0  0  0
   -0.6355    2.2383    3.9375 H   0  0  0  0  0  0  0  0  0  0  0  0
   -1.0372    0.0324    5.0465 H   0  0  0  0  0  0  0  0  0  0  0  0
    0.2678   -1.9729    4.3448 H   0  0  0  0  0  0  0  0  0  0  0  0
    3.2133   -3.5022    3.2551 H   0  0  0  0  0  0  0  0  0  0  0  0
    1.5880   -3.8521    2.7341 H   0  0  0  0  0  0  0  0  0  0  0  0
    3.4352   -5.0641    1.3614 H   0  0  0  0  0  0  0  0  0  0  0  0
    2.3430   -4.0890    0.4014 H   0  0  0  0  0  0  0  0  0  0  0  0
    5.5602   -0.2067    0.1426 H   0  0  0  0  0  0  0  0  0  0  0  0
    5.8948   -2.2393    2.4797 H   0  0  0  0  0  0  0  0  0  0  0  0
    7.0895   -1.0552    1.9569 H   0  0  0  0  0  0  0  0  0  0  0  0
    4.4908   -0.3871    2.7811 H   0  0  0  0  0  0  0  0  0  0  0  0
  1  2  2  0
  2 20  1  0
  2  3  1  0
  3 21  1  0
  3  4  1  0
  3 25  1  6
  4  5  1  0
  4  7  1  0
  4 26  1  6
  5  6  1  0
  5 27  1  0
  5 28  1  0
  6 29  1  0
  8  7  1  6
  8 20  1  0
  8  9  1  0
  8 21  1  0
  9 17  2  0
  9 10  1  0
 10 24  1  0
 10 11  1  0
 11 16  2  0
 11 12  1  0
 12 13  2  0
 12 30  1  0
 13 14  1  0
 13 31  1  0
 14 15  2  0
 14 32  1  0
 15 16  1  0
 15 33  1  0
 16 17  1  0
 17 18  1  0
 18 19  1  0
 18 34  1  0
 18 35  1  0
 19 20  1  0
 19 36  1  0
 19 37  1  0
 21 22  1  0
 21 38  1  6
 22 23  1  0
 22 39  1  0
 22 40  1  0
 23 41  1  0
M  END
>  <i_m_ct_stereo_status>  (311) 
1

>  <s_m_source_file>  (311) 
/var/tmp/pbs.5076255.sched01/tmpay8aiv4m/132fzfu5vr2.sdf

>  <i_m_source_file_index>  (311) 
7

>  <i_lp_mmshare_version>  (311) 
48012

>  <i_f3d_flags>  (311) 
0

>  <s_epik_input>  (311) 
W09IXVtDSDJdW0NAQEhdKE8xKVtDQEBIXShbQ0BASF0yW0NIMl1bT0hdKUMoPU8pTjNbQ0gyXVtDSDJdYyhjNFtDQEBdMTIzKWM1YyhbbkhdNClbY0hdW2NIXVtjSF1bY0hdNQ==

>  <s_epik_cmdline>  (311) 
J2VwaWtfcHl0aG9uJywgJy1waHQnLCAnMi4wJywgJy1waCcsICc3LjAnLCAnLXRuJywgJzgnLCAnLW1hJywgJzIwMCcsICctaW1hZScsICc8aW5maWxlLm1hZT4nLCAnLW9tYWUnLCAnPG91dGZpbGUubWFlPic=

>  <r_lp_tautomer_probability>  (311) 
1

>  <r_epik_Ionization_Penalty>  (311) 
2.20916e-07

>  <r_epik_Ionization_Penalty_Charging>  (311) 
0

>  <r_epik_Ionization_Penalty_Neutral>  (311) 
2.20916e-07

>  <r_epik_State_Penalty>  (311) 
-0

>  <r_epik_Charging_Adjusted_Penalty>  (311) 
0

>  <i_epik_Tot_Q>  (311) 
0

>  <i_epik_Tot_abs_Q>  (311) 
0

>  <s_lp_Force_Field>  (311) 
OPLS3e

>  <r_lp_Energy>  (311) 
26.6351

>  <b_lp_Chiralities_Consistent>  (311) 
1

>  <s_lp_Variant>  (311) 
85:0-1

>  <s_i_glide_gridfile>  (311) 
pfpi4k_grid

>  <i_i_glide_lignum>  (311) 
7

>  <i_i_glide_rotatable_bonds>  (311) 
4

>  <r_i_docking_score>  (311) 
-3.08126

>  <r_i_glide_ligand_efficiency>  (311) 
-0.133968

>  <r_i_glide_ligand_efficiency_sa>  (311) 
-0.380987

>  <r_i_glide_ligand_efficiency_ln>  (311) 
-0.745078

>  <r_i_glide_gscore>  (311) 
-3.08126

>  <r_i_glide_lipo>  (311) 
-0.37971

>  <r_i_glide_hbond>  (311) 
-0.0762901

>  <r_i_glide_metal>  (311) 
-0

>  <r_i_glide_rewards>  (311) 
-1.35515

>  <r_i_glide_evdw>  (311) 
-26.1241

>  <r_i_glide_ecoul>  (311) 
-1.89523

>  <r_i_glide_erotb>  (311) 
0.376227

>  <r_i_glide_esite>  (311) 
-0.055846

>  <r_i_glide_emodel>  (311) 
-32.9399

>  <r_i_glide_energy>  (311) 
-28.0194

>  <r_i_glide_einternal>  (311) 
1.42851

>  <r_i_glide_intrahb_reward>  (311) 
-0

>  <i_i_glide_confnum>  (311) 
3

>  <i_i_glide_posenum>  (311) 
33

>  <r_i_glide_eff_state_penalty>  (311) 
0

>  <ligand_id>  (311) 
85

>  <original_smiles>  (311) 
O=C1C2C(CO)OC3(c4[nH]c5ccccc5c4CCN13)C2CO

>  <smiles>  (311) 
[H]OC([H])([H])C1([H])OC23c4c(c5c([H])c([H])c([H])c([H])c5n4[H])C([H])([H])C([H])([H])N2C(=O)C1([H])C3([H])C([H])([H])O[H]

$$$$
86:0:0
     RDKit          3D

 39 44  0  0  1  0  0  0  0  0999 V2000
    3.8240   -0.0155   -4.0578 C   0  0  0  0  0  0  0  0  0  0  0  0
    3.3156   -1.1835   -3.3242 N   0  0  1  0  0  0  0  0  0  0  0  0
    2.4961   -2.0158   -4.2040 C   0  0  0  0  0  0  0  0  0  0  0  0
    1.8356   -3.1751   -3.4820 C   0  0  0  0  0  0  0  0  0  0  0  0
    2.3374   -3.3279   -2.1729 O   0  0  0  0  0  0  0  0  0  0  0  0
    3.7492   -3.3934   -2.1554 C   0  0  2  0  0  0  0  0  0  0  0  0
    4.1669   -3.5392   -0.6727 C   0  0  2  0  0  0  0  0  0  0  0  0
    4.0611   -2.0115   -0.3597 C   0  0  0  0  0  0  0  0  0  0  0  0
    5.0247   -1.3767   -1.4262 C   0  0  1  0  0  0  0  0  0  0  0  0
    6.5733   -1.8700   -1.3677 C   0  0  2  0  0  0  0  0  0  0  0  0
    7.5907   -2.7336   -0.3387 C   0  0  1  0  0  0  0  0  0  0  0  0
    6.9328   -4.1724    0.1254 C   0  0  1  0  0  0  0  0  0  0  0  0
    6.8339   -3.5915    1.4486 C   0  0  0  0  0  0  0  0  0  0  0  0
    6.4922   -2.6281    0.3351 C   0  0  2  0  0  0  0  0  0  0  0  0
    6.3460   -3.2704   -1.2718 C   0  0  1  0  0  0  0  0  0  0  0  0
    5.5855   -4.3151   -0.7005 C   0  0  2  0  0  0  0  0  0  0  0  0
    4.3440   -2.0254   -2.6683 C   0  0  2  0  0  0  0  0  0  0  0  0
    4.4549   -0.3352   -4.8957 H   0  0  0  0  0  0  0  0  0  0  0  0
    4.4045    0.6441   -3.4147 H   0  0  0  0  0  0  0  0  0  0  0  0
    3.0127    0.5775   -4.4858 H   0  0  0  0  0  0  0  0  0  0  0  0
    1.7185   -1.4149   -4.7277 H   0  0  0  0  0  0  0  0  0  0  0  0
    3.1174   -2.4125   -4.9928 H   0  0  0  0  0  0  0  0  0  0  0  0
    0.7753   -3.0613   -3.3903 H   0  0  0  0  0  0  0  0  0  0  0  0
    1.9799   -4.0772   -4.0779 H   0  0  0  0  0  0  0  0  0  0  0  0
    4.0822   -4.2295   -2.7678 H   0  0  0  0  0  0  0  0  0  0  0  0
    3.4572   -4.1260   -0.0935 H   0  0  0  0  0  0  0  0  0  0  0  0
    3.0419   -1.6490   -0.5107 H   0  0  0  0  0  0  0  0  0  0  0  0
    4.2679   -1.7514    0.6806 H   0  0  0  0  0  0  0  0  0  0  0  0
    4.9510   -0.2848   -1.4294 H   0  0  0  0  0  0  0  0  0  0  0  0
    7.0926   -1.6986   -2.2994 H   0  0  0  0  0  0  0  0  0  0  0  0
    8.4128   -2.2532    0.1925 H   0  0  0  0  0  0  0  0  0  0  0  0
    7.6600   -4.9995    0.0827 H   0  0  0  0  0  0  0  0  0  0  0  0
    6.0186   -4.0114    2.0415 H   0  0  0  0  0  0  0  0  0  0  0  0
    7.8071   -3.5408    1.9175 H   0  0  0  0  0  0  0  0  0  0  0  0
    6.4064   -1.5830    0.7279 H   0  0  0  0  0  0  0  0  0  0  0  0
    7.0355   -3.7133   -2.0812 H   0  0  0  0  0  0  0  0  0  0  0  0
    5.5221   -5.2247   -1.2693 H   0  0  0  0  0  0  0  0  0  0  0  0
    5.0890   -2.2694   -3.4355 H   0  0  0  0  0  0  0  0  0  0  0  0
    2.6765   -0.8451   -2.5897 H   0  0  0  0  0  0  0  0  0  0  0  0
  1  2  1  0
  1 18  1  0
  1 19  1  0
  1 20  1  0
  2 17  1  0
  2  3  1  0
  2 39  1  1
  3  4  1  0
  3 21  1  0
  3 22  1  0
  4  5  1  0
  4 23  1  0
  4 24  1  0
  5  6  1  0
  6 17  1  0
  6  7  1  0
  6 25  1  6
  7 16  1  0
  7  8  1  0
  7 26  1  1
  8  9  1  0
  8 27  1  0
  8 28  1  0
  9 10  1  0
  9 17  1  0
  9 29  1  6
 10 15  1  0
 10 11  1  0
 10 30  1  6
 11 14  1  0
 11 12  1  0
 11 31  1  1
 12 16  1  0
 12 13  1  0
 12 32  1  1
 13 14  1  0
 13 33  1  0
 13 34  1  0
 14 15  1  0
 14 35  1  1
 15 16  1  0
 15 36  1  6
 16 37  1  6
 17 38  1  6
M  CHG  1   2   1
M  END
>  <i_m_ct_stereo_status>  (312) 
1

>  <s_m_source_file>  (312) 
/var/tmp/pbs.5076255.sched01/tmpay8aiv4m/132fzfu5vr2.sdf

>  <i_m_source_file_index>  (312) 
8

>  <i_lp_mmshare_version>  (312) 
48012

>  <i_f3d_flags>  (312) 
0

>  <s_epik_input>  (312) 
TzFbQ0gyXVtDSDJdTihbQ0gzXSlbQ0BIXTJbQ0BASF0oW0NIMl0zKVtDQEhdKFtDQEhdNFtDQEhdNVtDSDJdNilbQ0BASF01W0NAQEhdNltDQEhdNFtDQEBIXTNbQ0BASF0xMg==

>  <s_epik_cmdline>  (312) 
J2VwaWtfcHl0aG9uJywgJy1waHQnLCAnMi4wJywgJy1waCcsICc3LjAnLCAnLXRuJywgJzgnLCAnLW1hJywgJzIwMCcsICctaW1hZScsICc8aW5maWxlLm1hZT4nLCAnLW9tYWUnLCAnPG91dGZpbGUubWFlPic=

>  <r_epik_Ionization_Penalty>  (312) 
0.0915127

>  <r_epik_Ionization_Penalty_Charging>  (312) 
0.0915127

>  <r_epik_Ionization_Penalty_Neutral>  (312) 
1.31558e-15

>  <r_epik_State_Penalty>  (312) 
0.0818418

>  <r_epik_Charging_Adjusted_Penalty>  (312) 
0.173355

>  <i_epik_Tot_Q>  (312) 
1

>  <i_epik_Tot_abs_Q>  (312) 
1

>  <s_lp_Force_Field>  (312) 
OPLS3e

>  <r_lp_Energy>  (312) 
345.25

>  <b_lp_Chiralities_Consistent>  (312) 
1

>  <s_lp_Variant>  (312) 
86:0-1

>  <s_i_glide_gridfile>  (312) 
pfpi4k_grid

>  <i_i_glide_lignum>  (312) 
8

>  <i_i_glide_rotatable_bonds>  (312) 
0

>  <r_i_docking_score>  (312) 
-3.80381

>  <r_i_glide_ligand_efficiency>  (312) 
-0.223753

>  <r_i_glide_ligand_efficiency_sa>  (312) 
-0.575333

>  <r_i_glide_ligand_efficiency_ln>  (312) 
-0.992328

>  <r_i_glide_gscore>  (312) 
-3.80381

>  <r_i_glide_lipo>  (312) 
-0.860768

>  <r_i_glide_hbond>  (312) 
0

>  <r_i_glide_metal>  (312) 
-0

>  <r_i_glide_rewards>  (312) 
-1.82495

>  <r_i_glide_evdw>  (312) 
-7.75635

>  <r_i_glide_ecoul>  (312) 
-4.8685

>  <r_i_glide_erotb>  (312) 
0

>  <r_i_glide_esite>  (312) 
0

>  <r_i_glide_emodel>  (312) 
-13.5764

>  <r_i_glide_energy>  (312) 
-12.6248

>  <r_i_glide_einternal>  (312) 
0

>  <r_i_glide_intrahb_reward>  (312) 
-0

>  <i_i_glide_confnum>  (312) 
1

>  <i_i_glide_posenum>  (312) 
1

>  <r_i_glide_eff_state_penalty>  (312) 
0

>  <ligand_id>  (312) 
86

>  <original_smiles>  (312) 
CN1CCOC2C3CC(C4C5C6CC5C4C36)C21

>  <smiles>  (312) 
[H]C1([H])OC2([H])C3([H])C([H])([H])C([H])(C4([H])C5([H])C6([H])C([H])([H])C5([H])C4([H])C36[H])C2([H])[N+]([H])(C([H])([H])[H])C1([H])[H]

$$$$
87:0:0
     RDKit          3D

 59 63  0  0  1  0  0  0  0  0999 V2000
    5.1574   -3.5181   -2.3455 C   0  0  0  0  0  0  0  0  0  0  0  0
    3.9623   -2.9846   -1.5278 C   0  0  0  0  0  0  0  0  0  0  0  0
    2.6931   -2.9619   -2.4062 C   0  0  0  0  0  0  0  0  0  0  0  0
    3.7459   -3.9144   -0.3374 C   0  0  0  0  0  0  0  0  0  0  0  0
    4.1994   -3.6957    0.9220 C   0  0  0  0  0  0  0  0  0  0  0  0
    5.0588   -2.4711    1.2661 C   0  0  1  0  0  0  0  0  0  0  0  0
    5.2606   -1.5004    0.0923 C   0  0  0  0  0  0  0  0  0  0  0  0
    6.2037   -0.7138    0.0732 O   0  0  0  0  0  0  0  0  0  0  0  0
    4.2313   -1.5462   -1.0357 C   0  0  0  0  0  0  0  0  0  0  0  0
    4.5973   -1.7884    2.5651 C   0  0  1  0  0  0  0  0  0  0  0  0
    3.2666   -1.0742    2.4654 C   0  0  0  0  0  0  0  0  0  0  0  0
    2.0045   -1.4920    2.8133 C   0  0  0  0  0  0  0  0  0  0  0  0
    0.9983   -0.5105    2.6277 C   0  0  0  0  0  0  0  0  0  0  0  0
    1.4741    0.6440    2.0795 C   0  0  0  0  0  0  0  0  0  0  0  0
    3.1931    0.5473    1.8403 S   0  0  0  0  0  0  0  0  0  0  0  0
    4.6787   -2.8807    3.6498 C   0  0  1  0  0  0  0  0  0  0  0  0
    4.4825   -2.3353    5.0765 C   0  0  0  0  0  0  0  0  0  0  0  0
    5.3475   -1.6592    5.6300 O   0  0  0  0  0  0  0  0  0  0  0  0
    3.1637   -2.6710    5.7761 C   0  0  0  0  0  0  0  0  0  0  0  0
    2.7990   -4.1689    5.6557 C   0  0  0  0  0  0  0  0  0  0  0  0
    3.6760   -5.0362    6.5776 C   0  0  0  0  0  0  0  0  0  0  0  0
    1.3100   -4.3364    6.0173 C   0  0  0  0  0  0  0  0  0  0  0  0
    3.0081   -4.6778    4.2412 C   0  0  0  0  0  0  0  0  0  0  0  0
    3.8132   -4.1085    3.3083 C   0  0  0  0  0  0  0  0  0  0  0  0
    3.9365   -4.5864    1.9834 N   0  0  0  0  0  0  0  0  0  0  0  0
    3.8556   -5.9715    1.7131 C   0  0  0  0  0  0  0  0  0  0  0  0
    2.6565   -6.7014    1.8692 C   0  0  0  0  0  0  0  0  0  0  0  0
    2.6746   -8.0919    1.6744 C   0  0  0  0  0  0  0  0  0  0  0  0
    3.8675   -8.6994    1.2475 C   0  0  0  0  0  0  0  0  0  0  0  0
    5.0035   -8.0053    1.0230 N   0  0  0  0  0  0  0  0  0  0  0  0
    4.9931   -6.6735    1.2606 C   0  0  0  0  0  0  0  0  0  0  0  0
    5.3809   -2.8763   -3.1978 H   0  0  0  0  0  0  0  0  0  0  0  0
    4.9565   -4.5243   -2.7209 H   0  0  0  0  0  0  0  0  0  0  0  0
    6.0592   -3.5862   -1.7311 H   0  0  0  0  0  0  0  0  0  0  0  0
    2.8031   -2.2683   -3.2397 H   0  0  0  0  0  0  0  0  0  0  0  0
    1.8219   -2.6679   -1.8200 H   0  0  0  0  0  0  0  0  0  0  0  0
    2.4507   -3.9325   -2.8271 H   0  0  0  0  0  0  0  0  0  0  0  0
    3.1504   -4.7906   -0.5442 H   0  0  0  0  0  0  0  0  0  0  0  0
    6.0529   -2.8768    1.4494 H   0  0  0  0  0  0  0  0  0  0  0  0
    4.5562   -0.9142   -1.8604 H   0  0  0  0  0  0  0  0  0  0  0  0
    3.3052   -1.1124   -0.6562 H   0  0  0  0  0  0  0  0  0  0  0  0
    5.3454   -1.0294    2.8134 H   0  0  0  0  0  0  0  0  0  0  0  0
    1.7519   -2.4623    3.2164 H   0  0  0  0  0  0  0  0  0  0  0  0
   -0.0358   -0.6923    2.8831 H   0  0  0  0  0  0  0  0  0  0  0  0
    0.9232    1.5341    1.7902 H   0  0  0  0  0  0  0  0  0  0  0  0
    5.7023   -3.2568    3.6365 H   0  0  0  0  0  0  0  0  0  0  0  0
    3.2058   -2.3721    6.8231 H   0  0  0  0  0  0  0  0  0  0  0  0
    2.3817   -2.0649    5.3185 H   0  0  0  0  0  0  0  0  0  0  0  0
    3.5996   -4.7196    7.6181 H   0  0  0  0  0  0  0  0  0  0  0  0
    4.7266   -4.9784    6.2782 H   0  0  0  0  0  0  0  0  0  0  0  0
    3.3866   -6.0881    6.5117 H   0  0  0  0  0  0  0  0  0  0  0  0
    1.1100   -3.9966    7.0310 H   0  0  0  0  0  0  0  0  0  0  0  0
    0.9945   -5.3776    5.9452 H   0  0  0  0  0  0  0  0  0  0  0  0
    0.6766   -3.7619    5.3395 H   0  0  0  0  0  0  0  0  0  0  0  0
    2.4026   -5.5424    4.0272 H   0  0  0  0  0  0  0  0  0  0  0  0
    1.7355   -6.2051    2.1411 H   0  0  0  0  0  0  0  0  0  0  0  0
    1.7775   -8.6789    1.8103 H   0  0  0  0  0  0  0  0  0  0  0  0
    3.9062   -9.7580    1.0337 H   0  0  0  0  0  0  0  0  0  0  0  0
    5.9348   -6.1641    1.1064 H   0  0  0  0  0  0  0  0  0  0  0  0
  1  2  1  0
  1 32  1  0
  1 33  1  0
  1 34  1  0
  2  9  1  0
  2  3  1  0
  2  4  1  0
  3 35  1  0
  3 36  1  0
  3 37  1  0
  4  5  2  0
  4 38  1  0
  5 25  1  0
  5  6  1  0
  6  7  1  0
  6 10  1  0
  6 39  1  1
  7  8  2  0
  7  9  1  0
  9 40  1  0
  9 41  1  0
 10 11  1  0
 10 16  1  0
 10 42  1  1
 11 15  1  0
 11 12  2  0
 12 13  1  0
 12 43  1  0
 13 14  2  0
 13 44  1  0
 14 15  1  0
 14 45  1  0
 16 24  1  0
 16 17  1  0
 16 46  1  1
 17 18  2  0
 17 19  1  0
 19 20  1  0
 19 47  1  0
 19 48  1  0
 20 21  1  0
 20 22  1  0
 20 23  1  0
 21 49  1  0
 21 50  1  0
 21 51  1  0
 22 52  1  0
 22 53  1  0
 22 54  1  0
 23 24  2  0
 23 55  1  0
 24 25  1  0
 25 26  1  0
 26 31  1  0
 26 27  2  0
 27 28  1  0
 27 56  1  0
 28 29  2  0
 28 57  1  0
 29 30  1  0
 29 58  1  0
 30 31  2  0
 31 59  1  0
M  END
>  <i_m_ct_stereo_status>  (313) 
1

>  <s_m_source_file>  (313) 
/var/tmp/pbs.5076255.sched01/tmpay8aiv4m/132fzfu5vr2.sdf

>  <i_m_source_file_index>  (313) 
10

>  <i_lp_mmshare_version>  (313) 
48012

>  <i_f3d_flags>  (313) 
0

>  <s_epik_input>  (313) 
W0NIM11DKFtDSDNdKShbQ0hdPTEpW0NIMl1DKD1PKVtDQEhdKEMxMilbQ0BASF0oYzNbY0hdW2NIXVtjSF1zMylbQ0BASF00Qyg9W0NIXUMoW0NIM10pKFtDSDNdKVtDSDJdQzQ9TylOMmM1W2NIXVtjSF1bY0hdbltjSF01

>  <s_epik_cmdline>  (313) 
J2VwaWtfcHl0aG9uJywgJy1waHQnLCAnMi4wJywgJy1waCcsICc3LjAnLCAnLXRuJywgJzgnLCAnLW1hJywgJzIwMCcsICctaW1hZScsICc8aW5maWxlLm1hZT4nLCAnLW9tYWUnLCAnPG91dGZpbGUubWFlPic=

>  <r_lp_tautomer_probability>  (313) 
0.9999

>  <r_epik_Ionization_Penalty>  (313) 
0.000395777

>  <r_epik_Ionization_Penalty_Charging>  (313) 
9.20908e-16

>  <r_epik_Ionization_Penalty_Neutral>  (313) 
0.000395777

>  <r_epik_State_Penalty>  (313) 
0.000242393

>  <r_epik_Charging_Adjusted_Penalty>  (313) 
0.000242393

>  <i_epik_Tot_Q>  (313) 
0

>  <i_epik_Tot_abs_Q>  (313) 
0

>  <s_epik_Chemistry_Notes>  (313) 
This compound has an imine and may undergo hydrolysis.

>  <s_lp_Force_Field>  (313) 
OPLS3e

>  <r_lp_Energy>  (313) 
41.0228

>  <b_lp_Chiralities_Consistent>  (313) 
1

>  <s_lp_Variant>  (313) 
87:0-1

>  <s_i_glide_gridfile>  (313) 
pfpi4k_grid

>  <i_i_glide_lignum>  (313) 
10

>  <i_i_glide_rotatable_bonds>  (313) 
2

>  <r_i_docking_score>  (313) 
-2.78184

>  <r_i_glide_ligand_efficiency>  (313) 
-0.0897368

>  <r_i_glide_ligand_efficiency_sa>  (313) 
-0.281897

>  <r_i_glide_ligand_efficiency_ln>  (313) 
-0.62739

>  <r_i_glide_gscore>  (313) 
-2.78184

>  <r_i_glide_lipo>  (313) 
-0.498164

>  <r_i_glide_hbond>  (313) 
-0.0111776

>  <r_i_glide_metal>  (313) 
-0

>  <r_i_glide_rewards>  (313) 
-0.505819

>  <r_i_glide_evdw>  (313) 
-32.5338

>  <r_i_glide_ecoul>  (313) 
-2.3512

>  <r_i_glide_erotb>  (313) 
0.21269

>  <r_i_glide_esite>  (313) 
0

>  <r_i_glide_emodel>  (313) 
-39.177

>  <r_i_glide_energy>  (313) 
-34.885

>  <r_i_glide_einternal>  (313) 
2.54038

>  <r_i_glide_intrahb_reward>  (313) 
-0

>  <i_i_glide_confnum>  (313) 
4

>  <i_i_glide_posenum>  (313) 
25

>  <r_i_glide_eff_state_penalty>  (313) 
0

>  <ligand_id>  (313) 
87

>  <original_smiles>  (313) 
CC1(C)C=C2C(C(=O)C1)C(c1cccs1)C1C(=O)CC(C)(C)C=C1N2c1cccnc1

>  <smiles>  (313) 
[H]C1=C2N(c3c([H])nc([H])c([H])c3[H])C3=C([H])C(C([H])([H])[H])(C([H])([H])[H])C([H])([H])C(=O)C3([H])C([H])(c3sc([H])c([H])c3[H])C2([H])C(=O)C([H])([H])C1(C([H])([H])[H])C([H])([H])[H]

$$$$
87:0:1
     RDKit          3D

 59 63  0  0  1  0  0  0  0  0999 V2000
    5.1637   -3.5080   -2.3278 C   0  0  0  0  0  0  0  0  0  0  0  0
    3.9788   -2.9600   -1.4980 C   0  0  0  0  0  0  0  0  0  0  0  0
    2.7175   -2.9341   -2.3894 C   0  0  0  0  0  0  0  0  0  0  0  0
    3.7686   -3.8890   -0.3087 C   0  0  0  0  0  0  0  0  0  0  0  0
    4.2298   -3.6670    0.9482 C   0  0  0  0  0  0  0  0  0  0  0  0
    5.0878   -2.4386    1.2866 C   0  0  1  0  0  0  0  0  0  0  0  0
    5.2775   -1.4766    0.1098 C   0  0  0  0  0  0  0  0  0  0  0  0
    6.2141   -0.6909    0.0807 O   0  0  0  0  0  0  0  0  0  0  0  0
    4.2548   -1.5205   -1.0176 C   0  0  0  0  0  0  0  0  0  0  0  0
    4.6385   -1.7501    2.5772 C   0  0  1  0  0  0  0  0  0  0  0  0
    3.3114   -1.0346    2.4883 C   0  0  0  0  0  0  0  0  0  0  0  0
    3.0977    0.3046    2.2741 C   0  0  0  0  0  0  0  0  0  0  0  0
    1.7235    0.6830    2.2607 C   0  0  0  0  0  0  0  0  0  0  0  0
    0.8824   -0.3701    2.4826 C   0  0  0  0  0  0  0  0  0  0  0  0
    1.7714   -1.8609    2.5632 S   0  0  0  0  0  0  0  0  0  0  0  0
    4.7399   -2.8410    3.6600 C   0  0  1  0  0  0  0  0  0  0  0  0
    4.5397   -2.3010    5.0886 C   0  0  0  0  0  0  0  0  0  0  0  0
    5.4029   -1.6256    5.6396 O   0  0  0  0  0  0  0  0  0  0  0  0
    3.2145   -2.6130    5.7836 C   0  0  0  0  0  0  0  0  0  0  0  0
    2.8415   -4.1034    5.6759 C   0  0  0  0  0  0  0  0  0  0  0  0
    3.7031   -4.9764    6.6093 C   0  0  0  0  0  0  0  0  0  0  0  0
    1.3520   -4.2589    6.0492 C   0  0  0  0  0  0  0  0  0  0  0  0
    3.0613   -4.6276    4.2755 C   0  0  0  0  0  0  0  0  0  0  0  0
    3.8775   -4.0797    3.3381 C   0  0  0  0  0  0  0  0  0  0  0  0
    3.9724   -4.5565    2.0116 N   0  0  0  0  0  0  0  0  0  0  0  0
    3.8638   -5.9491    1.7400 C   0  0  0  0  0  0  0  0  0  0  0  0
    2.6397   -6.6415    1.8574 C   0  0  0  0  0  0  0  0  0  0  0  0
    2.6361   -8.0364    1.6632 C   0  0  0  0  0  0  0  0  0  0  0  0
    3.8317   -8.6660    1.2794 C   0  0  0  0  0  0  0  0  0  0  0  0
    4.9902   -7.9995    1.0947 N   0  0  0  0  0  0  0  0  0  0  0  0
    4.9991   -6.6681    1.3275 C   0  0  0  0  0  0  0  0  0  0  0  0
    5.3919   -2.8741   -3.1857 H   0  0  0  0  0  0  0  0  0  0  0  0
    4.9514   -4.5166   -2.6985 H   0  0  0  0  0  0  0  0  0  0  0  0
    6.0704   -3.5874   -1.7175 H   0  0  0  0  0  0  0  0  0  0  0  0
    2.8309   -2.2401   -3.2219 H   0  0  0  0  0  0  0  0  0  0  0  0
    1.8472   -2.6508   -1.8037 H   0  0  0  0  0  0  0  0  0  0  0  0
    2.4640   -3.9019   -2.8047 H   0  0  0  0  0  0  0  0  0  0  0  0
    3.1578   -4.7610   -0.5171 H   0  0  0  0  0  0  0  0  0  0  0  0
    6.0794   -2.8553    1.4572 H   0  0  0  0  0  0  0  0  0  0  0  0
    4.5902   -0.9028   -1.8482 H   0  0  0  0  0  0  0  0  0  0  0  0
    3.3303   -1.0764   -0.6454 H   0  0  0  0  0  0  0  0  0  0  0  0
    5.3927   -0.9983    2.8135 H   0  0  0  0  0  0  0  0  0  0  0  0
    3.8653    1.0380    2.1131 H   0  0  0  0  0  0  0  0  0  0  0  0
    1.3938    1.7039    2.0898 H   0  0  0  0  0  0  0  0  0  0  0  0
   -0.1898   -0.3612    2.5372 H   0  0  0  0  0  0  0  0  0  0  0  0
    5.7632   -3.2218    3.6506 H   0  0  0  0  0  0  0  0  0  0  0  0
    3.2580   -2.3075    6.8271 H   0  0  0  0  0  0  0  0  0  0  0  0
    2.4400   -2.0063    5.3126 H   0  0  0  0  0  0  0  0  0  0  0  0
    3.6329   -4.6523    7.6485 H   0  0  0  0  0  0  0  0  0  0  0  0
    4.7556   -4.9340    6.3057 H   0  0  0  0  0  0  0  0  0  0  0  0
    3.4031   -6.0277    6.5478 H   0  0  0  0  0  0  0  0  0  0  0  0
    1.1611   -3.9103    7.0615 H   0  0  0  0  0  0  0  0  0  0  0  0
    1.0211   -5.2961    5.9853 H   0  0  0  0  0  0  0  0  0  0  0  0
    0.7211   -3.6789    5.3731 H   0  0  0  0  0  0  0  0  0  0  0  0
    2.4272   -5.4756    4.0812 H   0  0  0  0  0  0  0  0  0  0  0  0
    1.7210   -6.1307    2.0999 H   0  0  0  0  0  0  0  0  0  0  0  0
    1.7253   -8.6050    1.7815 H   0  0  0  0  0  0  0  0  0  0  0  0
    3.8607   -9.7276    1.0838 H   0  0  0  0  0  0  0  0  0  0  0  0
    5.9542   -6.1747    1.2107 H   0  0  0  0  0  0  0  0  0  0  0  0
  1  2  1  0
  1 32  1  0
  1 33  1  0
  1 34  1  0
  2  9  1  0
  2  3  1  0
  2  4  1  0
  3 35  1  0
  3 36  1  0
  3 37  1  0
  4  5  2  0
  4 38  1  0
  5 25  1  0
  5  6  1  0
  6  7  1  0
  6 10  1  0
  6 39  1  1
  7  8  2  0
  7  9  1  0
  9 40  1  0
  9 41  1  0
 10 11  1  0
 10 16  1  0
 10 42  1  1
 11 15  1  0
 11 12  2  0
 12 13  1  0
 12 43  1  0
 13 14  2  0
 13 44  1  0
 14 15  1  0
 14 45  1  0
 16 24  1  0
 16 17  1  0
 16 46  1  1
 17 18  2  0
 17 19  1  0
 19 20  1  0
 19 47  1  0
 19 48  1  0
 20 21  1  0
 20 22  1  0
 20 23  1  0
 21 49  1  0
 21 50  1  0
 21 51  1  0
 22 52  1  0
 22 53  1  0
 22 54  1  0
 23 24  2  0
 23 55  1  0
 24 25  1  0
 25 26  1  0
 26 31  1  0
 26 27  2  0
 27 28  1  0
 27 56  1  0
 28 29  2  0
 28 57  1  0
 29 30  1  0
 29 58  1  0
 30 31  2  0
 31 59  1  0
M  END
>  <i_m_ct_stereo_status>  (314) 
1

>  <s_m_source_file>  (314) 
/var/tmp/pbs.5076255.sched01/tmpay8aiv4m/132fzfu5vr2.sdf

>  <i_m_source_file_index>  (314) 
10

>  <i_lp_mmshare_version>  (314) 
48012

>  <i_f3d_flags>  (314) 
0

>  <s_epik_input>  (314) 
W0NIM11DKFtDSDNdKShbQ0hdPTEpW0NIMl1DKD1PKVtDQEhdKEMxMilbQ0BASF0oYzNbY0hdW2NIXVtjSF1zMylbQ0BASF00Qyg9W0NIXUMoW0NIM10pKFtDSDNdKVtDSDJdQzQ9TylOMmM1W2NIXVtjSF1bY0hdbltjSF01

>  <s_epik_cmdline>  (314) 
J2VwaWtfcHl0aG9uJywgJy1waHQnLCAnMi4wJywgJy1waCcsICc3LjAnLCAnLXRuJywgJzgnLCAnLW1hJywgJzIwMCcsICctaW1hZScsICc8aW5maWxlLm1hZT4nLCAnLW9tYWUnLCAnPG91dGZpbGUubWFlPic=

>  <r_lp_tautomer_probability>  (314) 
0.9999

>  <r_epik_Ionization_Penalty>  (314) 
0.000395777

>  <r_epik_Ionization_Penalty_Charging>  (314) 
9.20908e-16

>  <r_epik_Ionization_Penalty_Neutral>  (314) 
0.000395777

>  <r_epik_State_Penalty>  (314) 
0.000242393

>  <r_epik_Charging_Adjusted_Penalty>  (314) 
0.000242393

>  <i_epik_Tot_Q>  (314) 
0

>  <i_epik_Tot_abs_Q>  (314) 
0

>  <s_epik_Chemistry_Notes>  (314) 
This compound has an imine and may undergo hydrolysis.

>  <s_lp_Force_Field>  (314) 
OPLS3e

>  <r_lp_Energy>  (314) 
41.0228

>  <b_lp_Chiralities_Consistent>  (314) 
1

>  <s_lp_Variant>  (314) 
87:0-1

>  <s_i_glide_gridfile>  (314) 
pfpi4k_grid

>  <i_i_glide_lignum>  (314) 
10

>  <i_i_glide_rotatable_bonds>  (314) 
2

>  <r_i_docking_score>  (314) 
-2.7049

>  <r_i_glide_ligand_efficiency>  (314) 
-0.087255

>  <r_i_glide_ligand_efficiency_sa>  (314) 
-0.274101

>  <r_i_glide_ligand_efficiency_ln>  (314) 
-0.610039

>  <r_i_glide_gscore>  (314) 
-2.7049

>  <r_i_glide_lipo>  (314) 
-0.442404

>  <r_i_glide_hbond>  (314) 
-0.0109853

>  <r_i_glide_metal>  (314) 
-0

>  <r_i_glide_rewards>  (314) 
-0.512662

>  <r_i_glide_evdw>  (314) 
-32.1702

>  <r_i_glide_ecoul>  (314) 
-2.2869

>  <r_i_glide_erotb>  (314) 
0.21269

>  <r_i_glide_esite>  (314) 
0

>  <r_i_glide_emodel>  (314) 
-39.1186

>  <r_i_glide_energy>  (314) 
-34.4571

>  <r_i_glide_einternal>  (314) 
1.37095

>  <r_i_glide_intrahb_reward>  (314) 
-0

>  <i_i_glide_confnum>  (314) 
1

>  <i_i_glide_posenum>  (314) 
31

>  <r_i_glide_eff_state_penalty>  (314) 
0

>  <ligand_id>  (314) 
87

>  <original_smiles>  (314) 
CC1(C)C=C2C(C(=O)C1)C(c1cccs1)C1C(=O)CC(C)(C)C=C1N2c1cccnc1

>  <smiles>  (314) 
[H]C1=C2N(c3c([H])nc([H])c([H])c3[H])C3=C([H])C(C([H])([H])[H])(C([H])([H])[H])C([H])([H])C(=O)C3([H])C([H])(c3sc([H])c([H])c3[H])C2([H])C(=O)C([H])([H])C1(C([H])([H])[H])C([H])([H])[H]

$$$$
87:0:2
     RDKit          3D

 59 63  0  0  1  0  0  0  0  0999 V2000
    2.9474   -3.0845    6.9371 C   0  0  0  0  0  0  0  0  0  0  0  0
    2.5878   -3.9805    5.7334 C   0  0  0  0  0  0  0  0  0  0  0  0
    1.2017   -4.6184    5.9404 C   0  0  0  0  0  0  0  0  0  0  0  0
    2.5308   -3.0851    4.5107 C   0  0  0  0  0  0  0  0  0  0  0  0
    3.5220   -2.9448    3.5930 C   0  0  0  0  0  0  0  0  0  0  0  0
    4.8734   -3.6595    3.7659 C   0  0  1  0  0  0  0  0  0  0  0  0
    4.9434   -4.6050    4.9746 C   0  0  0  0  0  0  0  0  0  0  0  0
    6.0201   -4.9362    5.4665 O   0  0  0  0  0  0  0  0  0  0  0  0
    3.6177   -5.1137    5.5327 C   0  0  0  0  0  0  0  0  0  0  0  0
    5.3683   -4.3030    2.4601 C   0  0  1  0  0  0  0  0  0  0  0  0
    4.5889   -5.5178    2.0062 C   0  0  0  0  0  0  0  0  0  0  0  0
    3.2396   -5.6430    1.7728 C   0  0  0  0  0  0  0  0  0  0  0  0
    2.8571   -6.9525    1.3665 C   0  0  0  0  0  0  0  0  0  0  0  0
    3.9176   -7.8135    1.2841 C   0  0  0  0  0  0  0  0  0  0  0  0
    5.4094   -7.0273    1.7073 S   0  0  0  0  0  0  0  0  0  0  0  0
    5.4471   -3.1613    1.4367 C   0  0  1  0  0  0  0  0  0  0  0  0
    6.1204   -3.5678    0.1183 C   0  0  0  0  0  0  0  0  0  0  0  0
    7.3342   -3.7549    0.0508 O   0  0  0  0  0  0  0  0  0  0  0  0
    5.2136   -3.7348   -1.0964 C   0  0  0  0  0  0  0  0  0  0  0  0
    4.2448   -2.5437   -1.2810 C   0  0  0  0  0  0  0  0  0  0  0  0
    4.9881   -1.2971   -1.7922 C   0  0  0  0  0  0  0  0  0  0  0  0
    3.1665   -2.9659   -2.2934 C   0  0  0  0  0  0  0  0  0  0  0  0
    3.5856   -2.1722    0.0400 C   0  0  0  0  0  0  0  0  0  0  0  0
    4.0935   -2.4562    1.2610 C   0  0  0  0  0  0  0  0  0  0  0  0
    3.4138   -2.1231    2.4507 N   0  0  0  0  0  0  0  0  0  0  0  0
    2.6588   -0.9361    2.4927 C   0  0  0  0  0  0  0  0  0  0  0  0
    3.2992    0.3178    2.4292 C   0  0  0  0  0  0  0  0  0  0  0  0
    2.5227    1.4881    2.5060 C   0  0  0  0  0  0  0  0  0  0  0  0
    1.1267    1.3634    2.6285 C   0  0  0  0  0  0  0  0  0  0  0  0
    0.4993    0.1693    2.6698 N   0  0  0  0  0  0  0  0  0  0  0  0
    1.2499   -0.9455    2.5776 C   0  0  0  0  0  0  0  0  0  0  0  0
    3.0254   -3.6614    7.8600 H   0  0  0  0  0  0  0  0  0  0  0  0
    2.1952   -2.3042    7.0850 H   0  0  0  0  0  0  0  0  0  0  0  0
    3.9016   -2.5739    6.7766 H   0  0  0  0  0  0  0  0  0  0  0  0
    1.1958   -5.2727    6.8109 H   0  0  0  0  0  0  0  0  0  0  0  0
    0.9181   -5.2161    5.0732 H   0  0  0  0  0  0  0  0  0  0  0  0
    0.4270   -3.8639    6.0821 H   0  0  0  0  0  0  0  0  0  0  0  0
    1.5867   -2.5801    4.4107 H   0  0  0  0  0  0  0  0  0  0  0  0
    5.5738   -2.8581    4.0055 H   0  0  0  0  0  0  0  0  0  0  0  0
    3.7883   -5.6398    6.4714 H   0  0  0  0  0  0  0  0  0  0  0  0
    3.2279   -5.8417    4.8188 H   0  0  0  0  0  0  0  0  0  0  0  0
    6.3888   -4.6439    2.6377 H   0  0  0  0  0  0  0  0  0  0  0  0
    2.5100   -4.8532    1.8815 H   0  0  0  0  0  0  0  0  0  0  0  0
    1.8317   -7.2197    1.1502 H   0  0  0  0  0  0  0  0  0  0  0  0
    3.9126   -8.8603    1.0046 H   0  0  0  0  0  0  0  0  0  0  0  0
    6.1040   -2.3993    1.8571 H   0  0  0  0  0  0  0  0  0  0  0  0
    5.8213   -3.8779   -1.9885 H   0  0  0  0  0  0  0  0  0  0  0  0
    4.6469   -4.6566   -0.9530 H   0  0  0  0  0  0  0  0  0  0  0  0
    5.5011   -1.5211   -2.7176 H   0  0  0  0  0  0  0  0  0  0  0  0
    5.7328   -0.9494   -1.0712 H   0  0  0  0  0  0  0  0  0  0  0  0
    4.3027   -0.4652   -1.9753 H   0  0  0  0  0  0  0  0  0  0  0  0
    3.6074   -3.2425   -3.2511 H   0  0  0  0  0  0  0  0  0  0  0  0
    2.4448   -2.1678   -2.4725 H   0  0  0  0  0  0  0  0  0  0  0  0
    2.6152   -3.8327   -1.9284 H   0  0  0  0  0  0  0  0  0  0  0  0
    2.6224   -1.6839   -0.0385 H   0  0  0  0  0  0  0  0  0  0  0  0
    4.3756    0.3760    2.3539 H   0  0  0  0  0  0  0  0  0  0  0  0
    2.9869    2.4603    2.4770 H   0  0  0  0  0  0  0  0  0  0  0  0
    0.4931    2.2365    2.7006 H   0  0  0  0  0  0  0  0  0  0  0  0
    0.6967   -1.8729    2.5800 H   0  0  0  0  0  0  0  0  0  0  0  0
  1  2  1  0
  1 32  1  0
  1 33  1  0
  1 34  1  0
  2  9  1  0
  2  3  1  0
  2  4  1  0
  3 35  1  0
  3 36  1  0
  3 37  1  0
  4  5  2  0
  4 38  1  0
  5 25  1  0
  5  6  1  0
  6  7  1  0
  6 10  1  0
  6 39  1  1
  7  8  2  0
  7  9  1  0
  9 40  1  0
  9 41  1  0
 10 11  1  0
 10 16  1  0
 10 42  1  1
 11 15  1  0
 11 12  2  0
 12 13  1  0
 12 43  1  0
 13 14  2  0
 13 44  1  0
 14 15  1  0
 14 45  1  0
 16 24  1  0
 16 17  1  0
 16 46  1  1
 17 18  2  0
 17 19  1  0
 19 20  1  0
 19 47  1  0
 19 48  1  0
 20 21  1  0
 20 22  1  0
 20 23  1  0
 21 49  1  0
 21 50  1  0
 21 51  1  0
 22 52  1  0
 22 53  1  0
 22 54  1  0
 23 24  2  0
 23 55  1  0
 24 25  1  0
 25 26  1  0
 26 31  1  0
 26 27  2  0
 27 28  1  0
 27 56  1  0
 28 29  2  0
 28 57  1  0
 29 30  1  0
 29 58  1  0
 30 31  2  0
 31 59  1  0
M  END
>  <i_m_ct_stereo_status>  (315) 
1

>  <s_m_source_file>  (315) 
/var/tmp/pbs.5076255.sched01/tmpay8aiv4m/132fzfu5vr2.sdf

>  <i_m_source_file_index>  (315) 
10

>  <i_lp_mmshare_version>  (315) 
48012

>  <i_f3d_flags>  (315) 
0

>  <s_epik_input>  (315) 
W0NIM11DKFtDSDNdKShbQ0hdPTEpW0NIMl1DKD1PKVtDQEhdKEMxMilbQ0BASF0oYzNbY0hdW2NIXVtjSF1zMylbQ0BASF00Qyg9W0NIXUMoW0NIM10pKFtDSDNdKVtDSDJdQzQ9TylOMmM1W2NIXVtjSF1bY0hdbltjSF01

>  <s_epik_cmdline>  (315) 
J2VwaWtfcHl0aG9uJywgJy1waHQnLCAnMi4wJywgJy1waCcsICc3LjAnLCAnLXRuJywgJzgnLCAnLW1hJywgJzIwMCcsICctaW1hZScsICc8aW5maWxlLm1hZT4nLCAnLW9tYWUnLCAnPG91dGZpbGUubWFlPic=

>  <r_lp_tautomer_probability>  (315) 
0.9999

>  <r_epik_Ionization_Penalty>  (315) 
0.000395777

>  <r_epik_Ionization_Penalty_Charging>  (315) 
9.20908e-16

>  <r_epik_Ionization_Penalty_Neutral>  (315) 
0.000395777

>  <r_epik_State_Penalty>  (315) 
0.000242393

>  <r_epik_Charging_Adjusted_Penalty>  (315) 
0.000242393

>  <i_epik_Tot_Q>  (315) 
0

>  <i_epik_Tot_abs_Q>  (315) 
0

>  <s_epik_Chemistry_Notes>  (315) 
This compound has an imine and may undergo hydrolysis.

>  <s_lp_Force_Field>  (315) 
OPLS3e

>  <r_lp_Energy>  (315) 
41.0228

>  <b_lp_Chiralities_Consistent>  (315) 
1

>  <s_lp_Variant>  (315) 
87:0-1

>  <s_i_glide_gridfile>  (315) 
pfpi4k_grid

>  <i_i_glide_lignum>  (315) 
10

>  <i_i_glide_rotatable_bonds>  (315) 
2

>  <r_i_docking_score>  (315) 
-2.59037

>  <r_i_glide_ligand_efficiency>  (315) 
-0.0835602

>  <r_i_glide_ligand_efficiency_sa>  (315) 
-0.262494

>  <r_i_glide_ligand_efficiency_ln>  (315) 
-0.584207

>  <r_i_glide_gscore>  (315) 
-2.59037

>  <r_i_glide_lipo>  (315) 
-0.354961

>  <r_i_glide_hbond>  (315) 
0

>  <r_i_glide_metal>  (315) 
-0

>  <r_i_glide_rewards>  (315) 
-0.563649

>  <r_i_glide_evdw>  (315) 
-30.8953

>  <r_i_glide_ecoul>  (315) 
-2.26092

>  <r_i_glide_erotb>  (315) 
0.21269

>  <r_i_glide_esite>  (315) 
-0.000542533

>  <r_i_glide_emodel>  (315) 
-37.9018

>  <r_i_glide_energy>  (315) 
-33.1562

>  <r_i_glide_einternal>  (315) 
1.48964

>  <r_i_glide_intrahb_reward>  (315) 
-0

>  <i_i_glide_confnum>  (315) 
4

>  <i_i_glide_posenum>  (315) 
17

>  <r_i_glide_eff_state_penalty>  (315) 
0

>  <ligand_id>  (315) 
87

>  <original_smiles>  (315) 
CC1(C)C=C2C(C(=O)C1)C(c1cccs1)C1C(=O)CC(C)(C)C=C1N2c1cccnc1

>  <smiles>  (315) 
[H]C1=C2N(c3c([H])nc([H])c([H])c3[H])C3=C([H])C(C([H])([H])[H])(C([H])([H])[H])C([H])([H])C(=O)C3([H])C([H])(c3sc([H])c([H])c3[H])C2([H])C(=O)C([H])([H])C1(C([H])([H])[H])C([H])([H])[H]

$$$$
87:1:0
     RDKit          3D

 59 63  0  0  1  0  0  0  0  0999 V2000
    4.5990   -2.3234    7.2617 C   0  0  0  0  0  0  0  0  0  0  0  0
    4.8178   -3.7527    6.7160 C   0  0  0  0  0  0  0  0  0  0  0  0
    5.7959   -4.5164    7.6274 C   0  0  0  0  0  0  0  0  0  0  0  0
    3.4766   -4.4613    6.7055 C   0  0  0  0  0  0  0  0  0  0  0  0
    2.6876   -4.6192    5.6170 C   0  0  0  0  0  0  0  0  0  0  0  0
    3.0299   -4.0220    4.2430 C   0  0  1  0  0  0  0  0  0  0  0  0
    4.3874   -3.2903    4.2563 C   0  0  0  0  0  0  0  0  0  0  0  0
    4.6351   -2.3630    3.4899 O   0  0  0  0  0  0  0  0  0  0  0  0
    5.4082   -3.7327    5.2943 C   0  0  0  0  0  0  0  0  0  0  0  0
    2.8713   -5.0749    3.1174 C   0  0  2  0  0  0  0  0  0  0  0  0
    3.2323   -4.5661    1.7479 C   0  0  0  0  0  0  0  0  0  0  0  0
    2.8417   -3.3992    1.1436 C   0  0  0  0  0  0  0  0  0  0  0  0
    3.3867   -3.2302   -0.1625 C   0  0  0  0  0  0  0  0  0  0  0  0
    4.1923   -4.2703   -0.5383 C   0  0  0  0  0  0  0  0  0  0  0  0
    4.2911   -5.4832    0.7073 S   0  0  0  0  0  0  0  0  0  0  0  0
    1.4307   -5.6295    3.2142 C   0  0  1  0  0  0  0  0  0  0  0  0
    1.0425   -6.6336    2.1138 C   0  0  0  0  0  0  0  0  0  0  0  0
    0.6714   -6.2609    1.0026 O   0  0  0  0  0  0  0  0  0  0  0  0
    1.0715   -8.1130    2.4811 C   0  0  0  0  0  0  0  0  0  0  0  0
    0.2453   -8.4025    3.7537 C   0  0  0  0  0  0  0  0  0  0  0  0
   -1.2730   -8.3023    3.4786 C   0  0  0  0  0  0  0  0  0  0  0  0
    0.6033   -9.8197    4.2423 C   0  0  0  0  0  0  0  0  0  0  0  0
    0.5867   -7.3930    4.8373 C   0  0  0  0  0  0  0  0  0  0  0  0
    1.1371   -6.1781    4.6162 C   0  0  0  0  0  0  0  0  0  0  0  0
    1.4782   -5.3233    5.6684 N   0  0  0  0  0  0  0  0  0  0  0  0
    0.5905   -5.1413    6.7419 C   0  0  0  0  0  0  0  0  0  0  0  0
    0.7519   -5.8123    7.9719 C   0  0  0  0  0  0  0  0  0  0  0  0
   -0.1686   -5.5577    9.0032 C   0  0  0  0  0  0  0  0  0  0  0  0
   -1.2202   -4.6535    8.7598 C   0  0  0  0  0  0  0  0  0  0  0  0
   -1.3865   -4.0043    7.5885 N   0  0  0  0  0  0  0  0  0  0  0  0
   -0.4967   -4.2536    6.6055 C   0  0  0  0  0  0  0  0  0  0  0  0
    5.5232   -1.7451    7.2593 H   0  0  0  0  0  0  0  0  0  0  0  0
    4.2156   -2.3417    8.2849 H   0  0  0  0  0  0  0  0  0  0  0  0
    3.8674   -1.7777    6.6599 H   0  0  0  0  0  0  0  0  0  0  0  0
    6.7759   -4.0413    7.6404 H   0  0  0  0  0  0  0  0  0  0  0  0
    5.9314   -5.5393    7.2732 H   0  0  0  0  0  0  0  0  0  0  0  0
    5.4354   -4.5709    8.6553 H   0  0  0  0  0  0  0  0  0  0  0  0
    3.1972   -4.8922    7.6542 H   0  0  0  0  0  0  0  0  0  0  0  0
    2.2853   -3.2414    4.0714 H   0  0  0  0  0  0  0  0  0  0  0  0
    6.2668   -3.0677    5.2668 H   0  0  0  0  0  0  0  0  0  0  0  0
    5.7522   -4.7289    5.0132 H   0  0  0  0  0  0  0  0  0  0  0  0
    3.5534   -5.8928    3.3428 H   0  0  0  0  0  0  0  0  0  0  0  0
    2.1912   -2.6581    1.5855 H   0  0  0  0  0  0  0  0  0  0  0  0
    3.1572   -2.3653   -0.7716 H   0  0  0  0  0  0  0  0  0  0  0  0
    4.7053   -4.4236   -1.4794 H   0  0  0  0  0  0  0  0  0  0  0  0
    0.7476   -4.7893    3.0809 H   0  0  0  0  0  0  0  0  0  0  0  0
    0.6998   -8.7157    1.6572 H   0  0  0  0  0  0  0  0  0  0  0  0
    2.1110   -8.4039    2.6445 H   0  0  0  0  0  0  0  0  0  0  0  0
   -1.5808   -8.9774    2.6800 H   0  0  0  0  0  0  0  0  0  0  0  0
   -1.5607   -7.2894    3.1869 H   0  0  0  0  0  0  0  0  0  0  0  0
   -1.8555   -8.5561    4.3686 H   0  0  0  0  0  0  0  0  0  0  0  0
    0.3737  -10.5667    3.4833 H   0  0  0  0  0  0  0  0  0  0  0  0
    0.0526  -10.0915    5.1446 H   0  0  0  0  0  0  0  0  0  0  0  0
    1.6667   -9.9006    4.4742 H   0  0  0  0  0  0  0  0  0  0  0  0
    0.4087   -7.7243    5.8519 H   0  0  0  0  0  0  0  0  0  0  0  0
    1.5722   -6.4980    8.1258 H   0  0  0  0  0  0  0  0  0  0  0  0
   -0.0631   -6.0307    9.9669 H   0  0  0  0  0  0  0  0  0  0  0  0
   -1.9483   -4.4328    9.5252 H   0  0  0  0  0  0  0  0  0  0  0  0
   -0.6478   -3.7191    5.6800 H   0  0  0  0  0  0  0  0  0  0  0  0
  1  2  1  0
  1 32  1  0
  1 33  1  0
  1 34  1  0
  2  9  1  0
  2  3  1  0
  2  4  1  0
  3 35  1  0
  3 36  1  0
  3 37  1  0
  4  5  2  0
  4 38  1  0
  5 25  1  0
  5  6  1  0
  6  7  1  0
  6 10  1  0
  6 39  1  6
  7  8  2  0
  7  9  1  0
  9 40  1  0
  9 41  1  0
 10 11  1  0
 10 16  1  0
 10 42  1  1
 11 15  1  0
 11 12  2  0
 12 13  1  0
 12 43  1  0
 13 14  2  0
 13 44  1  0
 14 15  1  0
 14 45  1  0
 16 24  1  0
 16 17  1  0
 16 46  1  6
 17 18  2  0
 17 19  1  0
 19 20  1  0
 19 47  1  0
 19 48  1  0
 20 21  1  0
 20 22  1  0
 20 23  1  0
 21 49  1  0
 21 50  1  0
 21 51  1  0
 22 52  1  0
 22 53  1  0
 22 54  1  0
 23 24  2  0
 23 55  1  0
 24 25  1  0
 25 26  1  0
 26 31  1  0
 26 27  2  0
 27 28  1  0
 27 56  1  0
 28 29  2  0
 28 57  1  0
 29 30  1  0
 29 58  1  0
 30 31  2  0
 31 59  1  0
M  END
>  <i_m_ct_stereo_status>  (316) 
1

>  <s_m_source_file>  (316) 
/var/tmp/pbs.5076255.sched01/tmpay8aiv4m/132fzfu5vr2.sdf

>  <i_m_source_file_index>  (316) 
11

>  <i_lp_mmshare_version>  (316) 
48012

>  <i_f3d_flags>  (316) 
0

>  <s_epik_input>  (316) 
W0NIM11DKFtDSDNdKShbQ0hdPTEpW0NIMl1DKD1PKVtDQEhdKEMxMilbQ0BASF0oYzNbY0hdW2NIXVtjSF1zMylbQ0BASF00Qyg9W0NIXUMoW0NIM10pKFtDSDNdKVtDSDJdQzQ9TylOMmM1W2NIXVtjSF1bY0hdbltjSF01

>  <s_epik_cmdline>  (316) 
J2VwaWtfcHl0aG9uJywgJy1waHQnLCAnMi4wJywgJy1waCcsICc3LjAnLCAnLXRuJywgJzgnLCAnLW1hJywgJzIwMCcsICctaW1hZScsICc8aW5maWxlLm1hZT4nLCAnLW9tYWUnLCAnPG91dGZpbGUubWFlPic=

>  <r_lp_tautomer_probability>  (316) 
0.9999

>  <r_epik_Ionization_Penalty>  (316) 
0.000395777

>  <r_epik_Ionization_Penalty_Charging>  (316) 
9.20908e-16

>  <r_epik_Ionization_Penalty_Neutral>  (316) 
0.000395777

>  <r_epik_State_Penalty>  (316) 
0.000242393

>  <r_epik_Charging_Adjusted_Penalty>  (316) 
0.000242393

>  <i_epik_Tot_Q>  (316) 
0

>  <i_epik_Tot_abs_Q>  (316) 
0

>  <s_epik_Chemistry_Notes>  (316) 
This compound has an imine and may undergo hydrolysis.

>  <s_lp_Force_Field>  (316) 
OPLS3e

>  <r_lp_Energy>  (316) 
44.0787

>  <b_lp_Chiralities_Consistent>  (316) 
1

>  <s_lp_Variant>  (316) 
87:0-2

>  <s_i_glide_gridfile>  (316) 
pfpi4k_grid

>  <i_i_glide_lignum>  (316) 
11

>  <i_i_glide_rotatable_bonds>  (316) 
2

>  <r_i_docking_score>  (316) 
-2.72303

>  <r_i_glide_ligand_efficiency>  (316) 
-0.0878396

>  <r_i_glide_ligand_efficiency_sa>  (316) 
-0.275938

>  <r_i_glide_ligand_efficiency_ln>  (316) 
-0.614126

>  <r_i_glide_gscore>  (316) 
-2.72303

>  <r_i_glide_lipo>  (316) 
-0.0713301

>  <r_i_glide_hbond>  (316) 
-0.16

>  <r_i_glide_metal>  (316) 
-0

>  <r_i_glide_rewards>  (316) 
-0.474813

>  <r_i_glide_evdw>  (316) 
-28.1347

>  <r_i_glide_ecoul>  (316) 
-5.11648

>  <r_i_glide_erotb>  (316) 
0.21269

>  <r_i_glide_esite>  (316) 
-0.0553679

>  <r_i_glide_emodel>  (316) 
-37.6667

>  <r_i_glide_energy>  (316) 
-33.2512

>  <r_i_glide_einternal>  (316) 
3.06391

>  <r_i_glide_intrahb_reward>  (316) 
-0

>  <i_i_glide_confnum>  (316) 
6

>  <i_i_glide_posenum>  (316) 
28

>  <r_i_glide_eff_state_penalty>  (316) 
0

>  <ligand_id>  (316) 
87

>  <original_smiles>  (316) 
CC1(C)C=C2C(C(=O)C1)C(c1cccs1)C1C(=O)CC(C)(C)C=C1N2c1cccnc1

>  <smiles>  (316) 
[H]C1=C2N(c3c([H])nc([H])c([H])c3[H])C3=C([H])C(C([H])([H])[H])(C([H])([H])[H])C([H])([H])C(=O)C3([H])C([H])(c3sc([H])c([H])c3[H])C2([H])C(=O)C([H])([H])C1(C([H])([H])[H])C([H])([H])[H]

$$$$
87:1:1
     RDKit          3D

 59 63  0  0  1  0  0  0  0  0999 V2000
    4.7931   -2.6804    7.3386 C   0  0  0  0  0  0  0  0  0  0  0  0
    4.9372   -4.1107    6.7741 C   0  0  0  0  0  0  0  0  0  0  0  0
    5.8338   -4.9518    7.6982 C   0  0  0  0  0  0  0  0  0  0  0  0
    3.5550   -4.7305    6.7196 C   0  0  0  0  0  0  0  0  0  0  0  0
    2.7815   -4.8242    5.6102 C   0  0  0  0  0  0  0  0  0  0  0  0
    3.2008   -4.2352    4.2538 C   0  0  1  0  0  0  0  0  0  0  0  0
    4.6001   -3.5890    4.3134 C   0  0  0  0  0  0  0  0  0  0  0  0
    4.9263   -2.6665    3.5700 O   0  0  0  0  0  0  0  0  0  0  0  0
    5.5635   -4.1116    5.3680 C   0  0  0  0  0  0  0  0  0  0  0  0
    3.0090   -5.2592    3.1077 C   0  0  2  0  0  0  0  0  0  0  0  0
    3.4315   -4.7384    1.7610 C   0  0  0  0  0  0  0  0  0  0  0  0
    4.3106   -5.3237    0.8838 C   0  0  0  0  0  0  0  0  0  0  0  0
    4.4972   -4.5705   -0.3130 C   0  0  0  0  0  0  0  0  0  0  0  0
    3.7540   -3.4190   -0.3363 C   0  0  0  0  0  0  0  0  0  0  0  0
    2.8091   -3.2415    1.1124 S   0  0  0  0  0  0  0  0  0  0  0  0
    1.5287   -5.7065    3.1575 C   0  0  1  0  0  0  0  0  0  0  0  0
    1.1033   -6.6673    2.0334 C   0  0  0  0  0  0  0  0  0  0  0  0
    0.7803   -6.2554    0.9172 O   0  0  0  0  0  0  0  0  0  0  0  0
    1.0266   -8.1462    2.3776 C   0  0  0  0  0  0  0  0  0  0  0  0
    0.1449   -8.4044    3.6178 C   0  0  0  0  0  0  0  0  0  0  0  0
   -1.3559   -8.2067    3.3067 C   0  0  0  0  0  0  0  0  0  0  0  0
    0.3999   -9.8467    4.0875 C   0  0  0  0  0  0  0  0  0  0  0  0
    0.5207   -7.4358    4.7278 C   0  0  0  0  0  0  0  0  0  0  0  0
    1.1562   -6.2545    4.5419 C   0  0  0  0  0  0  0  0  0  0  0  0
    1.5249   -5.4444    5.6212 N   0  0  0  0  0  0  0  0  0  0  0  0
    0.6198   -5.2241    6.6717 C   0  0  0  0  0  0  0  0  0  0  0  0
    0.7517   -5.8599    7.9250 C   0  0  0  0  0  0  0  0  0  0  0  0
   -0.1790   -5.5589    8.9359 C   0  0  0  0  0  0  0  0  0  0  0  0
   -1.2180   -4.6566    8.6463 C   0  0  0  0  0  0  0  0  0  0  0  0
   -1.3621   -4.0480    7.4498 N   0  0  0  0  0  0  0  0  0  0  0  0
   -0.4579   -4.3366    6.4889 C   0  0  0  0  0  0  0  0  0  0  0  0
    5.7527   -2.1631    7.3714 H   0  0  0  0  0  0  0  0  0  0  0  0
    4.3813   -2.6916    8.3516 H   0  0  0  0  0  0  0  0  0  0  0  0
    4.1136   -2.0794    6.7289 H   0  0  0  0  0  0  0  0  0  0  0  0
    6.8420   -4.5427    7.7461 H   0  0  0  0  0  0  0  0  0  0  0  0
    5.9103   -5.9758    7.3314 H   0  0  0  0  0  0  0  0  0  0  0  0
    5.4411   -4.9974    8.7150 H   0  0  0  0  0  0  0  0  0  0  0  0
    3.2320   -5.1500    7.6568 H   0  0  0  0  0  0  0  0  0  0  0  0
    2.5095   -3.4085    4.0730 H   0  0  0  0  0  0  0  0  0  0  0  0
    6.4684   -3.5084    5.3648 H   0  0  0  0  0  0  0  0  0  0  0  0
    5.8438   -5.1260    5.0816 H   0  0  0  0  0  0  0  0  0  0  0  0
    3.6296   -6.1281    3.3312 H   0  0  0  0  0  0  0  0  0  0  0  0
    4.8200   -6.2616    1.0509 H   0  0  0  0  0  0  0  0  0  0  0  0
    5.1502   -4.9030   -1.1091 H   0  0  0  0  0  0  0  0  0  0  0  0
    3.6878   -2.6693   -1.1142 H   0  0  0  0  0  0  0  0  0  0  0  0
    0.9101   -4.8190    3.0205 H   0  0  0  0  0  0  0  0  0  0  0  0
    0.6372   -8.7007    1.5288 H   0  0  0  0  0  0  0  0  0  0  0  0
    2.0381   -8.5130    2.5610 H   0  0  0  0  0  0  0  0  0  0  0  0
   -1.6832   -8.8494    2.4889 H   0  0  0  0  0  0  0  0  0  0  0  0
   -1.5706   -7.1735    3.0257 H   0  0  0  0  0  0  0  0  0  0  0  0
   -1.9766   -8.4368    4.1776 H   0  0  0  0  0  0  0  0  0  0  0  0
    0.1388  -10.5674    3.3138 H   0  0  0  0  0  0  0  0  0  0  0  0
   -0.1794  -10.0918    4.9763 H   0  0  0  0  0  0  0  0  0  0  0  0
    1.4457  -10.0019    4.3485 H   0  0  0  0  0  0  0  0  0  0  0  0
    0.2974   -7.7697    5.7317 H   0  0  0  0  0  0  0  0  0  0  0  0
    1.5559   -6.5539    8.1149 H   0  0  0  0  0  0  0  0  0  0  0  0
   -0.0868   -5.9979    9.9146 H   0  0  0  0  0  0  0  0  0  0  0  0
   -1.9527   -4.4007    9.3963 H   0  0  0  0  0  0  0  0  0  0  0  0
   -0.5860   -3.8266    5.5450 H   0  0  0  0  0  0  0  0  0  0  0  0
  1  2  1  0
  1 32  1  0
  1 33  1  0
  1 34  1  0
  2  9  1  0
  2  3  1  0
  2  4  1  0
  3 35  1  0
  3 36  1  0
  3 37  1  0
  4  5  2  0
  4 38  1  0
  5 25  1  0
  5  6  1  0
  6  7  1  0
  6 10  1  0
  6 39  1  6
  7  8  2  0
  7  9  1  0
  9 40  1  0
  9 41  1  0
 10 11  1  0
 10 16  1  0
 10 42  1  1
 11 15  1  0
 11 12  2  0
 12 13  1  0
 12 43  1  0
 13 14  2  0
 13 44  1  0
 14 15  1  0
 14 45  1  0
 16 24  1  0
 16 17  1  0
 16 46  1  6
 17 18  2  0
 17 19  1  0
 19 20  1  0
 19 47  1  0
 19 48  1  0
 20 21  1  0
 20 22  1  0
 20 23  1  0
 21 49  1  0
 21 50  1  0
 21 51  1  0
 22 52  1  0
 22 53  1  0
 22 54  1  0
 23 24  2  0
 23 55  1  0
 24 25  1  0
 25 26  1  0
 26 31  1  0
 26 27  2  0
 27 28  1  0
 27 56  1  0
 28 29  2  0
 28 57  1  0
 29 30  1  0
 29 58  1  0
 30 31  2  0
 31 59  1  0
M  END
>  <i_m_ct_stereo_status>  (317) 
1

>  <s_m_source_file>  (317) 
/var/tmp/pbs.5076255.sched01/tmpay8aiv4m/132fzfu5vr2.sdf

>  <i_m_source_file_index>  (317) 
11

>  <i_lp_mmshare_version>  (317) 
48012

>  <i_f3d_flags>  (317) 
0

>  <s_epik_input>  (317) 
W0NIM11DKFtDSDNdKShbQ0hdPTEpW0NIMl1DKD1PKVtDQEhdKEMxMilbQ0BASF0oYzNbY0hdW2NIXVtjSF1zMylbQ0BASF00Qyg9W0NIXUMoW0NIM10pKFtDSDNdKVtDSDJdQzQ9TylOMmM1W2NIXVtjSF1bY0hdbltjSF01

>  <s_epik_cmdline>  (317) 
J2VwaWtfcHl0aG9uJywgJy1waHQnLCAnMi4wJywgJy1waCcsICc3LjAnLCAnLXRuJywgJzgnLCAnLW1hJywgJzIwMCcsICctaW1hZScsICc8aW5maWxlLm1hZT4nLCAnLW9tYWUnLCAnPG91dGZpbGUubWFlPic=

>  <r_lp_tautomer_probability>  (317) 
0.9999

>  <r_epik_Ionization_Penalty>  (317) 
0.000395777

>  <r_epik_Ionization_Penalty_Charging>  (317) 
9.20908e-16

>  <r_epik_Ionization_Penalty_Neutral>  (317) 
0.000395777

>  <r_epik_State_Penalty>  (317) 
0.000242393

>  <r_epik_Charging_Adjusted_Penalty>  (317) 
0.000242393

>  <i_epik_Tot_Q>  (317) 
0

>  <i_epik_Tot_abs_Q>  (317) 
0

>  <s_epik_Chemistry_Notes>  (317) 
This compound has an imine and may undergo hydrolysis.

>  <s_lp_Force_Field>  (317) 
OPLS3e

>  <r_lp_Energy>  (317) 
44.0787

>  <b_lp_Chiralities_Consistent>  (317) 
1

>  <s_lp_Variant>  (317) 
87:0-2

>  <s_i_glide_gridfile>  (317) 
pfpi4k_grid

>  <i_i_glide_lignum>  (317) 
11

>  <i_i_glide_rotatable_bonds>  (317) 
2

>  <r_i_docking_score>  (317) 
-2.5664

>  <r_i_glide_ligand_efficiency>  (317) 
-0.0827872

>  <r_i_glide_ligand_efficiency_sa>  (317) 
-0.260066

>  <r_i_glide_ligand_efficiency_ln>  (317) 
-0.578803

>  <r_i_glide_gscore>  (317) 
-2.5664

>  <r_i_glide_lipo>  (317) 
-0.0877621

>  <r_i_glide_hbond>  (317) 
-0.16

>  <r_i_glide_metal>  (317) 
-0

>  <r_i_glide_rewards>  (317) 
-0.480028

>  <r_i_glide_evdw>  (317) 
-27.7395

>  <r_i_glide_ecoul>  (317) 
-4.07248

>  <r_i_glide_erotb>  (317) 
0.21269

>  <r_i_glide_esite>  (317) 
-0.0534583

>  <r_i_glide_emodel>  (317) 
-37.1062

>  <r_i_glide_energy>  (317) 
-31.8119

>  <r_i_glide_einternal>  (317) 
0.610713

>  <r_i_glide_intrahb_reward>  (317) 
-0

>  <i_i_glide_confnum>  (317) 
6

>  <i_i_glide_posenum>  (317) 
1

>  <r_i_glide_eff_state_penalty>  (317) 
0

>  <ligand_id>  (317) 
87

>  <original_smiles>  (317) 
CC1(C)C=C2C(C(=O)C1)C(c1cccs1)C1C(=O)CC(C)(C)C=C1N2c1cccnc1

>  <smiles>  (317) 
[H]C1=C2N(c3c([H])nc([H])c([H])c3[H])C3=C([H])C(C([H])([H])[H])(C([H])([H])[H])C([H])([H])C(=O)C3([H])C([H])(c3sc([H])c([H])c3[H])C2([H])C(=O)C([H])([H])C1(C([H])([H])[H])C([H])([H])[H]

$$$$
87:1:2
     RDKit          3D

 59 63  0  0  1  0  0  0  0  0999 V2000
   -0.4271   -2.4326    5.3062 C   0  0  0  0  0  0  0  0  0  0  0  0
    1.0003   -2.9439    5.5912 C   0  0  0  0  0  0  0  0  0  0  0  0
    1.2144   -3.0842    7.1095 C   0  0  0  0  0  0  0  0  0  0  0  0
    1.1429   -4.3099    4.9467 C   0  0  0  0  0  0  0  0  0  0  0  0
    1.7505   -4.5608    3.7603 C   0  0  0  0  0  0  0  0  0  0  0  0
    2.3207   -3.4430    2.8724 C   0  0  1  0  0  0  0  0  0  0  0  0
    2.1573   -2.0487    3.5110 C   0  0  0  0  0  0  0  0  0  0  0  0
    2.0619   -1.0292    2.8329 O   0  0  0  0  0  0  0  0  0  0  0  0
    2.0722   -1.9874    5.0318 C   0  0  0  0  0  0  0  0  0  0  0  0
    3.7562   -3.7718    2.3935 C   0  0  2  0  0  0  0  0  0  0  0  0
    4.3674   -2.6950    1.5375 C   0  0  0  0  0  0  0  0  0  0  0  0
    5.4610   -1.9212    1.8327 C   0  0  0  0  0  0  0  0  0  0  0  0
    5.7841   -0.9860    0.8084 C   0  0  0  0  0  0  0  0  0  0  0  0
    4.9302   -1.0535   -0.2607 C   0  0  0  0  0  0  0  0  0  0  0  0
    3.7060   -2.2720   -0.0231 S   0  0  0  0  0  0  0  0  0  0  0  0
    3.6899   -5.1481    1.6876 C   0  0  1  0  0  0  0  0  0  0  0  0
    5.0201   -5.6132    1.0630 C   0  0  0  0  0  0  0  0  0  0  0  0
    5.4151   -5.1861   -0.0179 O   0  0  0  0  0  0  0  0  0  0  0  0
    5.8308   -6.6428    1.8387 C   0  0  0  0  0  0  0  0  0  0  0  0
    4.9867   -7.8746    2.2295 C   0  0  0  0  0  0  0  0  0  0  0  0
    4.6869   -8.7649    1.0059 C   0  0  0  0  0  0  0  0  0  0  0  0
    5.7733   -8.6763    3.2818 C   0  0  0  0  0  0  0  0  0  0  0  0
    3.6569   -7.4242    2.8178 C   0  0  0  0  0  0  0  0  0  0  0  0
    3.0863   -6.2142    2.6102 C   0  0  0  0  0  0  0  0  0  0  0  0
    1.8876   -5.8549    3.2368 N   0  0  0  0  0  0  0  0  0  0  0  0
    0.8262   -6.7747    3.2888 C   0  0  0  0  0  0  0  0  0  0  0  0
    0.4297   -7.4096    4.4874 C   0  0  0  0  0  0  0  0  0  0  0  0
   -0.6768   -8.2723    4.4601 C   0  0  0  0  0  0  0  0  0  0  0  0
   -1.3318   -8.4990    3.2382 C   0  0  0  0  0  0  0  0  0  0  0  0
   -0.9583   -7.9055    2.0845 N   0  0  0  0  0  0  0  0  0  0  0  0
    0.1177   -7.0935    2.1118 C   0  0  0  0  0  0  0  0  0  0  0  0
   -0.5889   -1.4343    5.7124 H   0  0  0  0  0  0  0  0  0  0  0  0
   -1.1778   -3.0978    5.7385 H   0  0  0  0  0  0  0  0  0  0  0  0
   -0.6177   -2.3919    4.2306 H   0  0  0  0  0  0  0  0  0  0  0  0
    1.1340   -2.1197    7.6081 H   0  0  0  0  0  0  0  0  0  0  0  0
    2.2062   -3.4849    7.3214 H   0  0  0  0  0  0  0  0  0  0  0  0
    0.4883   -3.7609    7.5630 H   0  0  0  0  0  0  0  0  0  0  0  0
    0.7504   -5.1065    5.5543 H   0  0  0  0  0  0  0  0  0  0  0  0
    1.6871   -3.4176    1.9852 H   0  0  0  0  0  0  0  0  0  0  0  0
    1.8655   -0.9664    5.3489 H   0  0  0  0  0  0  0  0  0  0  0  0
    3.0522   -2.2625    5.4249 H   0  0  0  0  0  0  0  0  0  0  0  0
    4.3835   -3.8789    3.2807 H   0  0  0  0  0  0  0  0  0  0  0  0
    6.0350   -1.9851    2.7459 H   0  0  0  0  0  0  0  0  0  0  0  0
    6.6136   -0.2958    0.8914 H   0  0  0  0  0  0  0  0  0  0  0  0
    4.9228   -0.4549   -1.1616 H   0  0  0  0  0  0  0  0  0  0  0  0
    2.9959   -5.0589    0.8488 H   0  0  0  0  0  0  0  0  0  0  0  0
    6.6935   -6.9474    1.2495 H   0  0  0  0  0  0  0  0  0  0  0  0
    6.2122   -6.1502    2.7340 H   0  0  0  0  0  0  0  0  0  0  0  0
    5.6021   -9.0898    0.5116 H   0  0  0  0  0  0  0  0  0  0  0  0
    4.0911   -8.2261    0.2676 H   0  0  0  0  0  0  0  0  0  0  0  0
    4.1227   -9.6588    1.2871 H   0  0  0  0  0  0  0  0  0  0  0  0
    6.7370   -8.9975    2.8878 H   0  0  0  0  0  0  0  0  0  0  0  0
    5.2302   -9.5665    3.6024 H   0  0  0  0  0  0  0  0  0  0  0  0
    5.9661   -8.0698    4.1672 H   0  0  0  0  0  0  0  0  0  0  0  0
    3.1795   -8.1299    3.4833 H   0  0  0  0  0  0  0  0  0  0  0  0
    0.9595   -7.2389    5.4131 H   0  0  0  0  0  0  0  0  0  0  0  0
   -1.0064   -8.7835    5.3507 H   0  0  0  0  0  0  0  0  0  0  0  0
   -2.1691   -9.1782    3.1767 H   0  0  0  0  0  0  0  0  0  0  0  0
    0.3852   -6.6376    1.1700 H   0  0  0  0  0  0  0  0  0  0  0  0
  1  2  1  0
  1 32  1  0
  1 33  1  0
  1 34  1  0
  2  9  1  0
  2  3  1  0
  2  4  1  0
  3 35  1  0
  3 36  1  0
  3 37  1  0
  4  5  2  0
  4 38  1  0
  5 25  1  0
  5  6  1  0
  6  7  1  0
  6 10  1  0
  6 39  1  6
  7  8  2  0
  7  9  1  0
  9 40  1  0
  9 41  1  0
 10 11  1  0
 10 16  1  0
 10 42  1  1
 11 15  1  0
 11 12  2  0
 12 13  1  0
 12 43  1  0
 13 14  2  0
 13 44  1  0
 14 15  1  0
 14 45  1  0
 16 24  1  0
 16 17  1  0
 16 46  1  6
 17 18  2  0
 17 19  1  0
 19 20  1  0
 19 47  1  0
 19 48  1  0
 20 21  1  0
 20 22  1  0
 20 23  1  0
 21 49  1  0
 21 50  1  0
 21 51  1  0
 22 52  1  0
 22 53  1  0
 22 54  1  0
 23 24  2  0
 23 55  1  0
 24 25  1  0
 25 26  1  0
 26 31  1  0
 26 27  2  0
 27 28  1  0
 27 56  1  0
 28 29  2  0
 28 57  1  0
 29 30  1  0
 29 58  1  0
 30 31  2  0
 31 59  1  0
M  END
>  <i_m_ct_stereo_status>  (318) 
1

>  <s_m_source_file>  (318) 
/var/tmp/pbs.5076255.sched01/tmpay8aiv4m/132fzfu5vr2.sdf

>  <i_m_source_file_index>  (318) 
11

>  <i_lp_mmshare_version>  (318) 
48012

>  <i_f3d_flags>  (318) 
0

>  <s_epik_input>  (318) 
W0NIM11DKFtDSDNdKShbQ0hdPTEpW0NIMl1DKD1PKVtDQEhdKEMxMilbQ0BASF0oYzNbY0hdW2NIXVtjSF1zMylbQ0BASF00Qyg9W0NIXUMoW0NIM10pKFtDSDNdKVtDSDJdQzQ9TylOMmM1W2NIXVtjSF1bY0hdbltjSF01

>  <s_epik_cmdline>  (318) 
J2VwaWtfcHl0aG9uJywgJy1waHQnLCAnMi4wJywgJy1waCcsICc3LjAnLCAnLXRuJywgJzgnLCAnLW1hJywgJzIwMCcsICctaW1hZScsICc8aW5maWxlLm1hZT4nLCAnLW9tYWUnLCAnPG91dGZpbGUubWFlPic=

>  <r_lp_tautomer_probability>  (318) 
0.9999

>  <r_epik_Ionization_Penalty>  (318) 
0.000395777

>  <r_epik_Ionization_Penalty_Charging>  (318) 
9.20908e-16

>  <r_epik_Ionization_Penalty_Neutral>  (318) 
0.000395777

>  <r_epik_State_Penalty>  (318) 
0.000242393

>  <r_epik_Charging_Adjusted_Penalty>  (318) 
0.000242393

>  <i_epik_Tot_Q>  (318) 
0

>  <i_epik_Tot_abs_Q>  (318) 
0

>  <s_epik_Chemistry_Notes>  (318) 
This compound has an imine and may undergo hydrolysis.

>  <s_lp_Force_Field>  (318) 
OPLS3e

>  <r_lp_Energy>  (318) 
44.0787

>  <b_lp_Chiralities_Consistent>  (318) 
1

>  <s_lp_Variant>  (318) 
87:0-2

>  <s_i_glide_gridfile>  (318) 
pfpi4k_grid

>  <i_i_glide_lignum>  (318) 
11

>  <i_i_glide_rotatable_bonds>  (318) 
2

>  <r_i_docking_score>  (318) 
-2.19608

>  <r_i_glide_ligand_efficiency>  (318) 
-0.0708412

>  <r_i_glide_ligand_efficiency_sa>  (318) 
-0.222539

>  <r_i_glide_ligand_efficiency_ln>  (318) 
-0.495282

>  <r_i_glide_gscore>  (318) 
-2.19608

>  <r_i_glide_lipo>  (318) 
-0.304115

>  <r_i_glide_hbond>  (318) 
0

>  <r_i_glide_metal>  (318) 
-0

>  <r_i_glide_rewards>  (318) 
-0.558568

>  <r_i_glide_evdw>  (318) 
-33.646

>  <r_i_glide_ecoul>  (318) 
0.964416

>  <r_i_glide_erotb>  (318) 
0.21269

>  <r_i_glide_esite>  (318) 
-0.00844551

>  <r_i_glide_emodel>  (318) 
-37.3297

>  <r_i_glide_energy>  (318) 
-32.6816

>  <r_i_glide_einternal>  (318) 
0.291636

>  <r_i_glide_intrahb_reward>  (318) 
-0

>  <i_i_glide_confnum>  (318) 
1

>  <i_i_glide_posenum>  (318) 
14

>  <r_i_glide_eff_state_penalty>  (318) 
0

>  <ligand_id>  (318) 
87

>  <original_smiles>  (318) 
CC1(C)C=C2C(C(=O)C1)C(c1cccs1)C1C(=O)CC(C)(C)C=C1N2c1cccnc1

>  <smiles>  (318) 
[H]C1=C2N(c3c([H])nc([H])c([H])c3[H])C3=C([H])C(C([H])([H])[H])(C([H])([H])[H])C([H])([H])C(=O)C3([H])C([H])(c3sc([H])c([H])c3[H])C2([H])C(=O)C([H])([H])C1(C([H])([H])[H])C([H])([H])[H]

$$$$
89:0:0
     RDKit          3D

 47 50  0  0  1  0  0  0  0  0999 V2000
   -1.7355    3.1683    8.3506 C   0  0  0  0  0  0  0  0  0  0  0  0
   -1.0308    3.4234    7.0319 C   0  0  0  0  0  0  0  0  0  0  0  0
    0.2559    3.6761    6.7999 C   0  0  0  0  0  0  0  0  0  0  0  0
    0.6064    3.8298    5.3327 C   0  0  1  0  0  0  0  0  0  0  0  0
    1.1867    5.0975    5.1123 O   0  0  0  0  0  0  0  0  0  0  0  0
    1.5259    2.6897    4.9621 C   0  0  0  0  0  0  0  0  0  0  0  0
    2.8616    2.6938    4.9764 C   0  0  0  0  0  0  0  0  0  0  0  0
    3.7043    1.4973    4.5939 C   0  0  1  0  0  0  0  0  0  0  0  0
    4.8089    1.2719    5.6376 C   0  0  0  0  0  0  0  0  0  0  0  0
    2.8864    0.2022    4.2862 C   0  0  2  0  0  0  0  0  0  0  0  0
    3.6032   -0.6119    3.1814 C   0  0  0  0  0  0  0  0  0  0  0  0
    3.0044   -0.1559    1.8304 C   0  0  1  0  0  0  0  0  0  0  0  0
    2.6136   -1.3121    1.1065 O   0  0  0  0  0  0  0  0  0  0  0  0
    1.8290    0.7723    2.2187 C   0  0  1  0  0  0  0  0  0  0  0  0
    0.7214    0.7343    1.3420 O   0  0  0  0  0  0  0  0  0  0  0  0
    1.4685    0.4422    3.6891 C   0  0  1  0  0  0  0  0  0  0  0  0
    0.6180   -0.8522    3.7817 C   0  0  0  0  0  0  0  0  0  0  0  0
    0.6885    1.5428    4.4701 C   0  0  2  0  0  0  0  0  0  0  0  0
   -0.5200    2.2360    3.7995 C   0  0  0  0  0  0  0  0  0  0  0  0
   -0.7400    3.5527    4.5931 C   0  0  2  0  0  0  0  0  0  0  0  0
   -1.1632    4.5969    3.7164 O   0  0  0  0  0  0  0  0  0  0  0  0
   -1.7391    3.3977    5.7534 C   0  0  0  0  0  0  0  0  0  0  0  0
   -2.9583    3.2943    5.6001 O   0  0  0  0  0  0  0  0  0  0  0  0
   -2.1859    2.1761    8.3521 H   0  0  0  0  0  0  0  0  0  0  0  0
   -2.5292    3.9000    8.4882 H   0  0  0  0  0  0  0  0  0  0  0  0
   -1.0508    3.2370    9.1977 H   0  0  0  0  0  0  0  0  0  0  0  0
    1.0157    3.7372    7.5650 H   0  0  0  0  0  0  0  0  0  0  0  0
    1.2071    5.2486    4.1751 H   0  0  0  0  0  0  0  0  0  0  0  0
    3.3917    3.5849    5.2855 H   0  0  0  0  0  0  0  0  0  0  0  0
    4.1956    1.8110    3.6822 H   0  0  0  0  0  0  0  0  0  0  0  0
    5.4389    2.1588    5.7262 H   0  0  0  0  0  0  0  0  0  0  0  0
    5.4635    0.4417    5.3687 H   0  0  0  0  0  0  0  0  0  0  0  0
    4.3940    1.0704    6.6275 H   0  0  0  0  0  0  0  0  0  0  0  0
    2.8104   -0.3791    5.2111 H   0  0  0  0  0  0  0  0  0  0  0  0
    4.6879   -0.4948    3.2079 H   0  0  0  0  0  0  0  0  0  0  0  0
    3.4130   -1.6753    3.3448 H   0  0  0  0  0  0  0  0  0  0  0  0
    3.7375    0.3971    1.2387 H   0  0  0  0  0  0  0  0  0  0  0  0
    2.0883   -1.0676    0.3422 H   0  0  0  0  0  0  0  0  0  0  0  0
    2.2066    1.7968    2.1930 H   0  0  0  0  0  0  0  0  0  0  0  0
    0.8448    0.1091    0.6299 H   0  0  0  0  0  0  0  0  0  0  0  0
   -0.3787   -0.6850    3.3754 H   0  0  0  0  0  0  0  0  0  0  0  0
    0.4903   -1.1771    4.8154 H   0  0  0  0  0  0  0  0  0  0  0  0
    1.0480   -1.6901    3.2334 H   0  0  0  0  0  0  0  0  0  0  0  0
    0.3314    1.0971    5.3975 H   0  0  0  0  0  0  0  0  0  0  0  0
   -0.2719    2.5085    2.7741 H   0  0  0  0  0  0  0  0  0  0  0  0
   -1.4071    1.5954    3.7594 H   0  0  0  0  0  0  0  0  0  0  0  0
   -0.6469    4.5613    2.9149 H   0  0  0  0  0  0  0  0  0  0  0  0
  1  2  1  0
  1 24  1  0
  1 25  1  0
  1 26  1  0
  2 22  1  0
  2  3  2  0
  3  4  1  0
  3 27  1  0
  4 20  1  0
  4  5  1  1
  4  6  1  0
  5 28  1  0
  6 18  1  0
  6  7  2  0
  7  8  1  0
  7 29  1  0
  8  9  1  0
  8 10  1  0
  8 30  1  6
  9 31  1  0
  9 32  1  0
  9 33  1  0
 10 16  1  0
 10 11  1  0
 10 34  1  1
 11 12  1  0
 11 35  1  0
 11 36  1  0
 12 13  1  0
 12 14  1  0
 12 37  1  6
 13 38  1  0
 14 15  1  0
 14 16  1  0
 14 39  1  1
 15 40  1  0
 16 17  1  6
 16 18  1  0
 17 41  1  0
 17 42  1  0
 17 43  1  0
 18 19  1  0
 18 44  1  1
 19 20  1  0
 19 45  1  0
 19 46  1  0
 20 21  1  6
 20 22  1  0
 21 47  1  0
 22 23  2  0
M  END
>  <i_m_ct_stereo_status>  (319) 
1

>  <s_m_source_file>  (319) 
/var/tmp/pbs.5076255.sched01/tmpay8aiv4m/132fzfu5vr2.sdf

>  <i_m_source_file_index>  (319) 
14

>  <i_lp_mmshare_version>  (319) 
48012

>  <i_f3d_flags>  (319) 
0

>  <s_epik_input>  (319) 
W0NIM11DKD1bQ0hdMSlDKD1PKVtDQF0yKFtPSF0pW0NIMl1bQ0BIXShDPTNbQ0BdMTJbT0hdKVtDQF00KFtDSDNdKVtDQEhdKFtDQEBIXShbQ0hdMylbQ0gzXSlbQ0gyXVtDQEBIXShbT0hdKVtDQEhdNFtPSF0=

>  <s_epik_cmdline>  (319) 
J2VwaWtfcHl0aG9uJywgJy1waHQnLCAnMi4wJywgJy1waCcsICc3LjAnLCAnLXRuJywgJzgnLCAnLW1hJywgJzIwMCcsICctaW1hZScsICc8aW5maWxlLm1hZT4nLCAnLW9tYWUnLCAnPG91dGZpbGUubWFlPic=

>  <r_lp_tautomer_probability>  (319) 
1

>  <r_epik_Ionization_Penalty>  (319) 
7.97687e-06

>  <r_epik_Ionization_Penalty_Charging>  (319) 
0

>  <r_epik_Ionization_Penalty_Neutral>  (319) 
7.97687e-06

>  <r_epik_State_Penalty>  (319) 
-0

>  <r_epik_Charging_Adjusted_Penalty>  (319) 
0

>  <i_epik_Tot_Q>  (319) 
0

>  <i_epik_Tot_abs_Q>  (319) 
0

>  <s_lp_Force_Field>  (319) 
OPLS3e

>  <r_lp_Energy>  (319) 
27.0202

>  <b_lp_Chiralities_Consistent>  (319) 
1

>  <s_lp_Variant>  (319) 
89:0-1

>  <s_i_glide_gridfile>  (319) 
pfpi4k_grid

>  <i_i_glide_lignum>  (319) 
14

>  <i_i_glide_rotatable_bonds>  (319) 
4

>  <r_i_docking_score>  (319) 
-3.80695

>  <r_i_glide_ligand_efficiency>  (319) 
-0.165519

>  <r_i_glide_ligand_efficiency_sa>  (319) 
-0.470715

>  <r_i_glide_ligand_efficiency_ln>  (319) 
-0.920554

>  <r_i_glide_gscore>  (319) 
-3.80695

>  <r_i_glide_lipo>  (319) 
-0.0296857

>  <r_i_glide_hbond>  (319) 
0

>  <r_i_glide_metal>  (319) 
-0

>  <r_i_glide_rewards>  (319) 
-1.22468

>  <r_i_glide_evdw>  (319) 
-18.3941

>  <r_i_glide_ecoul>  (319) 
-10.881

>  <r_i_glide_erotb>  (319) 
0

>  <r_i_glide_esite>  (319) 
-0.000727872

>  <r_i_glide_emodel>  (319) 
-36.8451

>  <r_i_glide_energy>  (319) 
-29.2751

>  <r_i_glide_einternal>  (319) 
2.12027

>  <r_i_glide_intrahb_reward>  (319) 
-0

>  <i_i_glide_confnum>  (319) 
1

>  <i_i_glide_posenum>  (319) 
37

>  <r_i_glide_eff_state_penalty>  (319) 
0

>  <ligand_id>  (319) 
89

>  <original_smiles>  (319) 
CC1=CC2(O)C3=CC(C)C4CC(O)C(O)C4(C)C3CC2(O)C1=O

>  <smiles>  (319) 
[H]OC12C([H])=C(C([H])([H])[H])C(=O)C1(O[H])C([H])([H])C1([H])C2=C([H])C([H])(C([H])([H])[H])C2([H])C([H])([H])C([H])(O[H])C([H])(O[H])C12C([H])([H])[H]

$$$$
89:0:1
     RDKit          3D

 47 50  0  0  1  0  0  0  0  0999 V2000
   -1.4902    3.2623    8.7809 C   0  0  0  0  0  0  0  0  0  0  0  0
   -0.9216    3.4386    7.3868 C   0  0  0  0  0  0  0  0  0  0  0  0
    0.3407    3.6755    7.0178 C   0  0  0  0  0  0  0  0  0  0  0  0
    0.5494    3.7356    5.5196 C   0  0  1  0  0  0  0  0  0  0  0  0
    1.0916    4.9897    5.1621 O   0  0  0  0  0  0  0  0  0  0  0  0
    1.4424    2.5761    5.1345 C   0  0  0  0  0  0  0  0  0  0  0  0
    2.7756    2.5884    5.0154 C   0  0  0  0  0  0  0  0  0  0  0  0
    3.5935    1.3767    4.6278 C   0  0  1  0  0  0  0  0  0  0  0  0
    4.7865    1.2281    5.5870 C   0  0  0  0  0  0  0  0  0  0  0  0
    2.7592    0.0604    4.4934 C   0  0  2  0  0  0  0  0  0  0  0  0
    3.3789   -0.8311    3.3915 C   0  0  0  0  0  0  0  0  0  0  0  0
    2.6547   -0.4715    2.0780 C   0  0  1  0  0  0  0  0  0  0  0  0
    2.2172   -1.6618    1.4426 O   0  0  0  0  0  0  0  0  0  0  0  0
    1.4995    0.4707    2.4974 C   0  0  1  0  0  0  0  0  0  0  0  0
    0.3369    0.2763    1.7058 O   0  0  0  0  0  0  0  0  0  0  0  0
    1.2854    0.2475    4.0199 C   0  0  1  0  0  0  0  0  0  0  0  0
    0.4660   -1.0444    4.2843 C   0  0  0  0  0  0  0  0  0  0  0  0
    0.5730    1.3925    4.8021 C   0  0  2  0  0  0  0  0  0  0  0  0
   -0.7005    2.0341    4.2081 C   0  0  0  0  0  0  0  0  0  0  0  0
   -0.8575    3.4052    4.9301 C   0  0  2  0  0  0  0  0  0  0  0  0
   -1.3625    4.3970    4.0367 O   0  0  0  0  0  0  0  0  0  0  0  0
   -1.7451    3.3233    6.1835 C   0  0  0  0  0  0  0  0  0  0  0  0
   -2.9747    3.1722    6.1488 O   0  0  0  0  0  0  0  0  0  0  0  0
   -1.9223    2.2695    8.8930 H   0  0  0  0  0  0  0  0  0  0  0  0
   -2.2772    3.9942    8.9509 H   0  0  0  0  0  0  0  0  0  0  0  0
   -0.7281    3.3896    9.5510 H   0  0  0  0  0  0  0  0  0  0  0  0
    1.1678    3.7893    7.7026 H   0  0  0  0  0  0  0  0  0  0  0  0
    1.0779    5.0499    4.2165 H   0  0  0  0  0  0  0  0  0  0  0  0
    3.3155    3.5032    5.2154 H   0  0  0  0  0  0  0  0  0  0  0  0
    3.9978    1.6318    3.6522 H   0  0  0  0  0  0  0  0  0  0  0  0
    5.4078    2.1255    5.5683 H   0  0  0  0  0  0  0  0  0  0  0  0
    5.4259    0.3849    5.3143 H   0  0  0  0  0  0  0  0  0  0  0  0
    4.4655    1.0865    6.6221 H   0  0  0  0  0  0  0  0  0  0  0  0
    2.7787   -0.4551    5.4599 H   0  0  0  0  0  0  0  0  0  0  0  0
    4.4580   -0.7022    3.3052 H   0  0  0  0  0  0  0  0  0  0  0  0
    3.2171   -1.8818    3.6443 H   0  0  0  0  0  0  0  0  0  0  0  0
    3.3235    0.0470    1.3885 H   0  0  0  0  0  0  0  0  0  0  0  0
    1.7319   -1.4259    0.6504 H   0  0  0  0  0  0  0  0  0  0  0  0
    1.8447    1.4995    2.3549 H   0  0  0  0  0  0  0  0  0  0  0  0
    0.5640    0.2594    0.7763 H   0  0  0  0  0  0  0  0  0  0  0  0
   -0.5717   -0.9256    3.9645 H   0  0  0  0  0  0  0  0  0  0  0  0
    0.4445   -1.3009    5.3459 H   0  0  0  0  0  0  0  0  0  0  0  0
    0.8557   -1.9142    3.7563 H   0  0  0  0  0  0  0  0  0  0  0  0
    0.3126    1.0057    5.7879 H   0  0  0  0  0  0  0  0  0  0  0  0
   -0.5575    2.2238    3.1447 H   0  0  0  0  0  0  0  0  0  0  0  0
   -1.5788    1.3879    4.3017 H   0  0  0  0  0  0  0  0  0  0  0  0
   -0.9160    4.3232    3.1989 H   0  0  0  0  0  0  0  0  0  0  0  0
  1  2  1  0
  1 24  1  0
  1 25  1  0
  1 26  1  0
  2 22  1  0
  2  3  2  0
  3  4  1  0
  3 27  1  0
  4 20  1  0
  4  5  1  1
  4  6  1  0
  5 28  1  0
  6 18  1  0
  6  7  2  0
  7  8  1  0
  7 29  1  0
  8  9  1  0
  8 10  1  0
  8 30  1  6
  9 31  1  0
  9 32  1  0
  9 33  1  0
 10 16  1  0
 10 11  1  0
 10 34  1  1
 11 12  1  0
 11 35  1  0
 11 36  1  0
 12 13  1  0
 12 14  1  0
 12 37  1  6
 13 38  1  0
 14 15  1  0
 14 16  1  0
 14 39  1  1
 15 40  1  0
 16 17  1  6
 16 18  1  0
 17 41  1  0
 17 42  1  0
 17 43  1  0
 18 19  1  0
 18 44  1  1
 19 20  1  0
 19 45  1  0
 19 46  1  0
 20 21  1  6
 20 22  1  0
 21 47  1  0
 22 23  2  0
M  END
>  <i_m_ct_stereo_status>  (320) 
1

>  <s_m_source_file>  (320) 
/var/tmp/pbs.5076255.sched01/tmpay8aiv4m/132fzfu5vr2.sdf

>  <i_m_source_file_index>  (320) 
14

>  <i_lp_mmshare_version>  (320) 
48012

>  <i_f3d_flags>  (320) 
0

>  <s_epik_input>  (320) 
W0NIM11DKD1bQ0hdMSlDKD1PKVtDQF0yKFtPSF0pW0NIMl1bQ0BIXShDPTNbQ0BdMTJbT0hdKVtDQF00KFtDSDNdKVtDQEhdKFtDQEBIXShbQ0hdMylbQ0gzXSlbQ0gyXVtDQEBIXShbT0hdKVtDQEhdNFtPSF0=

>  <s_epik_cmdline>  (320) 
J2VwaWtfcHl0aG9uJywgJy1waHQnLCAnMi4wJywgJy1waCcsICc3LjAnLCAnLXRuJywgJzgnLCAnLW1hJywgJzIwMCcsICctaW1hZScsICc8aW5maWxlLm1hZT4nLCAnLW9tYWUnLCAnPG91dGZpbGUubWFlPic=

>  <r_lp_tautomer_probability>  (320) 
1

>  <r_epik_Ionization_Penalty>  (320) 
7.97687e-06

>  <r_epik_Ionization_Penalty_Charging>  (320) 
0

>  <r_epik_Ionization_Penalty_Neutral>  (320) 
7.97687e-06

>  <r_epik_State_Penalty>  (320) 
-0

>  <r_epik_Charging_Adjusted_Penalty>  (320) 
0

>  <i_epik_Tot_Q>  (320) 
0

>  <i_epik_Tot_abs_Q>  (320) 
0

>  <s_lp_Force_Field>  (320) 
OPLS3e

>  <r_lp_Energy>  (320) 
27.0202

>  <b_lp_Chiralities_Consistent>  (320) 
1

>  <s_lp_Variant>  (320) 
89:0-1

>  <s_i_glide_gridfile>  (320) 
pfpi4k_grid

>  <i_i_glide_lignum>  (320) 
14

>  <i_i_glide_rotatable_bonds>  (320) 
4

>  <r_i_docking_score>  (320) 
-3.49443

>  <r_i_glide_ligand_efficiency>  (320) 
-0.151932

>  <r_i_glide_ligand_efficiency_sa>  (320) 
-0.432074

>  <r_i_glide_ligand_efficiency_ln>  (320) 
-0.844986

>  <r_i_glide_gscore>  (320) 
-3.49443

>  <r_i_glide_lipo>  (320) 
-0.0175759

>  <r_i_glide_hbond>  (320) 
0

>  <r_i_glide_metal>  (320) 
-0

>  <r_i_glide_rewards>  (320) 
-1.28202

>  <r_i_glide_evdw>  (320) 
-18.7016

>  <r_i_glide_ecoul>  (320) 
-8.39838

>  <r_i_glide_erotb>  (320) 
0

>  <r_i_glide_esite>  (320) 
0

>  <r_i_glide_emodel>  (320) 
-34.479

>  <r_i_glide_energy>  (320) 
-27.1

>  <r_i_glide_einternal>  (320) 
1.16312

>  <r_i_glide_intrahb_reward>  (320) 
-0

>  <i_i_glide_confnum>  (320) 
2

>  <i_i_glide_posenum>  (320) 
7

>  <r_i_glide_eff_state_penalty>  (320) 
0

>  <ligand_id>  (320) 
89

>  <original_smiles>  (320) 
CC1=CC2(O)C3=CC(C)C4CC(O)C(O)C4(C)C3CC2(O)C1=O

>  <smiles>  (320) 
[H]OC12C([H])=C(C([H])([H])[H])C(=O)C1(O[H])C([H])([H])C1([H])C2=C([H])C([H])(C([H])([H])[H])C2([H])C([H])([H])C([H])(O[H])C([H])(O[H])C12C([H])([H])[H]

$$$$
89:0:2
     RDKit          3D

 47 50  0  0  1  0  0  0  0  0999 V2000
   -1.9691    3.2348    8.3804 C   0  0  0  0  0  0  0  0  0  0  0  0
   -1.2227    3.5163    7.0929 C   0  0  0  0  0  0  0  0  0  0  0  0
    0.0592    3.8429    6.9094 C   0  0  0  0  0  0  0  0  0  0  0  0
    0.4536    4.0114    5.4555 C   0  0  1  0  0  0  0  0  0  0  0  0
    0.9635    5.3136    5.2471 O   0  0  0  0  0  0  0  0  0  0  0  0
    1.4404    2.9167    5.1194 C   0  0  0  0  0  0  0  0  0  0  0  0
    2.7658    2.9877    5.1792 C   0  0  0  0  0  0  0  0  0  0  0  0
    3.6856    1.8381    4.8249 C   0  0  1  0  0  0  0  0  0  0  0  0
    4.7522    1.6625    5.9164 C   0  0  0  0  0  0  0  0  0  0  0  0
    2.9378    0.5022    4.5007 C   0  0  2  0  0  0  0  0  0  0  0  0
    3.7297   -0.2807    3.4259 C   0  0  0  0  0  0  0  0  0  0  0  0
    3.1512    0.1497    2.0612 C   0  0  1  0  0  0  0  0  0  0  0  0
    2.8067   -1.0027    1.3122 O   0  0  0  0  0  0  0  0  0  0  0  0
    1.9378    1.0392    2.4083 C   0  0  1  0  0  0  0  0  0  0  0  0
    0.8988    0.9226    1.4667 O   0  0  0  0  0  0  0  0  0  0  0  0
    1.5307    0.6747    3.8543 C   0  0  1  0  0  0  0  0  0  0  0  0
    0.7408   -0.6629    3.9099 C   0  0  0  0  0  0  0  0  0  0  0  0
    0.6723    1.7296    4.6038 C   0  0  2  0  0  0  0  0  0  0  0  0
   -0.5396    2.3579    3.8811 C   0  0  0  0  0  0  0  0  0  0  0  0
   -0.8468    3.6646    4.6622 C   0  0  2  0  0  0  0  0  0  0  0  0
   -1.2957    4.6732    3.7612 O   0  0  0  0  0  0  0  0  0  0  0  0
   -1.8716    3.4544    5.7879 C   0  0  0  0  0  0  0  0  0  0  0  0
   -3.0717    3.3101    5.5832 O   0  0  0  0  0  0  0  0  0  0  0  0
   -2.3712    2.2227    8.3703 H   0  0  0  0  0  0  0  0  0  0  0  0
   -2.8048    3.9250    8.4893 H   0  0  0  0  0  0  0  0  0  0  0  0
   -1.3280    3.3356    9.2550 H   0  0  0  0  0  0  0  0  0  0  0  0
    0.7786    3.9499    7.7056 H   0  0  0  0  0  0  0  0  0  0  0  0
    1.0276    5.4487    4.3114 H   0  0  0  0  0  0  0  0  0  0  0  0
    3.2360    3.9035    5.5102 H   0  0  0  0  0  0  0  0  0  0  0  0
    4.1964    2.1739    3.9282 H   0  0  0  0  0  0  0  0  0  0  0  0
    5.3357    2.5800    6.0303 H   0  0  0  0  0  0  0  0  0  0  0  0
    5.4539    0.8638    5.6730 H   0  0  0  0  0  0  0  0  0  0  0  0
    4.3084    1.4382    6.8895 H   0  0  0  0  0  0  0  0  0  0  0  0
    2.8556   -0.0822    5.4212 H   0  0  0  0  0  0  0  0  0  0  0  0
    4.8051   -0.1065    3.4865 H   0  0  0  0  0  0  0  0  0  0  0  0
    3.5873   -1.3529    3.5797 H   0  0  0  0  0  0  0  0  0  0  0  0
    3.8727    0.7223    1.4795 H   0  0  0  0  0  0  0  0  0  0  0  0
    2.2103   -0.7388    0.6146 H   0  0  0  0  0  0  0  0  0  0  0  0
    2.2756    2.0772    2.3857 H   0  0  0  0  0  0  0  0  0  0  0  0
    0.4923    1.7696    1.3419 H   0  0  0  0  0  0  0  0  0  0  0  0
   -0.2483   -0.5580    3.4608 H   0  0  0  0  0  0  0  0  0  0  0  0
    0.5908   -0.9968    4.9386 H   0  0  0  0  0  0  0  0  0  0  0  0
    1.2361   -1.4778    3.3832 H   0  0  0  0  0  0  0  0  0  0  0  0
    0.2995    1.2646    5.5179 H   0  0  0  0  0  0  0  0  0  0  0  0
   -0.2763    2.6464    2.8634 H   0  0  0  0  0  0  0  0  0  0  0  0
   -1.3946    1.6790    3.8100 H   0  0  0  0  0  0  0  0  0  0  0  0
   -0.7544    4.6645    2.9784 H   0  0  0  0  0  0  0  0  0  0  0  0
  1  2  1  0
  1 24  1  0
  1 25  1  0
  1 26  1  0
  2 22  1  0
  2  3  2  0
  3  4  1  0
  3 27  1  0
  4 20  1  0
  4  5  1  1
  4  6  1  0
  5 28  1  0
  6 18  1  0
  6  7  2  0
  7  8  1  0
  7 29  1  0
  8  9  1  0
  8 10  1  0
  8 30  1  6
  9 31  1  0
  9 32  1  0
  9 33  1  0
 10 16  1  0
 10 11  1  0
 10 34  1  1
 11 12  1  0
 11 35  1  0
 11 36  1  0
 12 13  1  0
 12 14  1  0
 12 37  1  6
 13 38  1  0
 14 15  1  0
 14 16  1  0
 14 39  1  1
 15 40  1  0
 16 17  1  6
 16 18  1  0
 17 41  1  0
 17 42  1  0
 17 43  1  0
 18 19  1  0
 18 44  1  1
 19 20  1  0
 19 45  1  0
 19 46  1  0
 20 21  1  6
 20 22  1  0
 21 47  1  0
 22 23  2  0
M  END
>  <i_m_ct_stereo_status>  (321) 
1

>  <s_m_source_file>  (321) 
/var/tmp/pbs.5076255.sched01/tmpay8aiv4m/132fzfu5vr2.sdf

>  <i_m_source_file_index>  (321) 
14

>  <i_lp_mmshare_version>  (321) 
48012

>  <i_f3d_flags>  (321) 
0

>  <s_epik_input>  (321) 
W0NIM11DKD1bQ0hdMSlDKD1PKVtDQF0yKFtPSF0pW0NIMl1bQ0BIXShDPTNbQ0BdMTJbT0hdKVtDQF00KFtDSDNdKVtDQEhdKFtDQEBIXShbQ0hdMylbQ0gzXSlbQ0gyXVtDQEBIXShbT0hdKVtDQEhdNFtPSF0=

>  <s_epik_cmdline>  (321) 
J2VwaWtfcHl0aG9uJywgJy1waHQnLCAnMi4wJywgJy1waCcsICc3LjAnLCAnLXRuJywgJzgnLCAnLW1hJywgJzIwMCcsICctaW1hZScsICc8aW5maWxlLm1hZT4nLCAnLW9tYWUnLCAnPG91dGZpbGUubWFlPic=

>  <r_lp_tautomer_probability>  (321) 
1

>  <r_epik_Ionization_Penalty>  (321) 
7.97687e-06

>  <r_epik_Ionization_Penalty_Charging>  (321) 
0

>  <r_epik_Ionization_Penalty_Neutral>  (321) 
7.97687e-06

>  <r_epik_State_Penalty>  (321) 
-0

>  <r_epik_Charging_Adjusted_Penalty>  (321) 
0

>  <i_epik_Tot_Q>  (321) 
0

>  <i_epik_Tot_abs_Q>  (321) 
0

>  <s_lp_Force_Field>  (321) 
OPLS3e

>  <r_lp_Energy>  (321) 
27.0202

>  <b_lp_Chiralities_Consistent>  (321) 
1

>  <s_lp_Variant>  (321) 
89:0-1

>  <s_i_glide_gridfile>  (321) 
pfpi4k_grid

>  <i_i_glide_lignum>  (321) 
14

>  <i_i_glide_rotatable_bonds>  (321) 
4

>  <r_i_docking_score>  (321) 
-3.30367

>  <r_i_glide_ligand_efficiency>  (321) 
-0.143638

>  <r_i_glide_ligand_efficiency_sa>  (321) 
-0.408487

>  <r_i_glide_ligand_efficiency_ln>  (321) 
-0.798857

>  <r_i_glide_gscore>  (321) 
-3.30367

>  <r_i_glide_lipo>  (321) 
-0.0756857

>  <r_i_glide_hbond>  (321) 
0

>  <r_i_glide_metal>  (321) 
-0

>  <r_i_glide_rewards>  (321) 
-1.22469

>  <r_i_glide_evdw>  (321) 
-19.9442

>  <r_i_glide_ecoul>  (321) 
-6.70723

>  <r_i_glide_erotb>  (321) 
0

>  <r_i_glide_esite>  (321) 
0

>  <r_i_glide_emodel>  (321) 
-33.0381

>  <r_i_glide_energy>  (321) 
-26.6514

>  <r_i_glide_einternal>  (321) 
1.70106

>  <r_i_glide_intrahb_reward>  (321) 
-0

>  <i_i_glide_confnum>  (321) 
1

>  <i_i_glide_posenum>  (321) 
1

>  <r_i_glide_eff_state_penalty>  (321) 
0

>  <ligand_id>  (321) 
89

>  <original_smiles>  (321) 
CC1=CC2(O)C3=CC(C)C4CC(O)C(O)C4(C)C3CC2(O)C1=O

>  <smiles>  (321) 
[H]OC12C([H])=C(C([H])([H])[H])C(=O)C1(O[H])C([H])([H])C1([H])C2=C([H])C([H])(C([H])([H])[H])C2([H])C([H])([H])C([H])(O[H])C([H])(O[H])C12C([H])([H])[H]

$$$$
93:0:0
     RDKit          3D

 95102  0  0  1  0  0  0  0  0999 V2000
    4.2256  -11.5499    4.6197 C   0  0  0  0  0  0  0  0  0  0  0  0
    2.8138  -10.9423    4.5426 C   0  0  2  0  0  0  0  0  0  0  0  0
    2.2032  -11.2005    3.1576 C   0  0  0  0  0  0  0  0  0  0  0  0
    0.7258  -10.7884    3.1139 C   0  0  0  0  0  0  0  0  0  0  0  0
    0.4565   -9.3920    3.6887 C   0  0  2  0  0  0  0  0  0  0  0  0
    0.7422   -8.1039    2.8378 C   0  0  0  0  0  0  0  0  0  0  0  0
    1.8453   -8.1523    1.7723 C   0  0  0  0  0  0  0  0  0  0  0  0
   -0.5109   -7.5993    2.1110 C   0  0  0  0  0  0  0  0  0  0  0  0
    0.9945   -7.4918    4.2273 C   0  0  2  0  0  0  0  0  0  0  0  0
    1.9492   -6.4216    4.7167 C   0  0  0  0  0  0  0  0  0  0  0  0
    2.8522   -5.7507    3.9468 C   0  0  0  0  0  0  0  0  0  0  0  0
    3.7451   -4.6358    4.4650 C   0  0  0  0  0  0  0  0  0  0  0  0
    3.4056   -4.1511    5.9022 C   0  0  1  0  0  0  0  0  0  0  0  0
    3.0707   -5.3938    6.8279 C   0  0  1  0  0  0  0  0  0  0  0  0
    4.2940   -6.3632    6.8588 C   0  0  0  0  0  0  0  0  0  0  0  0
    2.8786   -4.9346    8.3100 C   0  0  0  0  0  0  0  0  0  0  0  0
    3.8903   -3.8858    8.8039 C   0  0  0  0  0  0  0  0  0  0  0  0
    3.8973   -2.5933    7.9472 C   0  0  2  0  0  0  0  0  0  0  0  0
    2.4631   -1.9801    8.0148 C   0  0  0  0  0  0  0  0  0  0  0  0
    4.3081   -2.9611    6.4591 C   0  0  2  0  0  0  0  0  0  0  0  0
    4.0702   -1.7346    5.5308 C   0  0  0  0  0  0  0  0  0  0  0  0
    5.8479   -3.2470    6.3718 C   0  0  0  0  0  0  0  0  0  0  0  0
    6.7310   -2.1257    6.9566 C   0  0  0  0  0  0  0  0  0  0  0  0
    6.3675   -1.8958    8.4224 C   0  0  1  0  0  0  0  0  0  0  0  0
    7.1323   -0.7986    9.2268 C   0  0  0  0  0  0  0  0  0  0  0  0
    8.4347   -1.3452    9.8448 C   0  0  0  0  0  0  0  0  0  0  0  0
    7.5043    0.4348    8.3665 C   0  0  0  0  0  0  0  0  0  0  0  0
    6.0919   -0.4340   10.3343 C   0  0  1  0  0  0  0  0  0  0  0  0
    6.2185    0.8500   10.9252 O   0  0  0  0  0  0  0  0  0  0  0  0
    4.7320   -0.6580    9.7233 C   0  0  1  0  0  0  0  0  0  0  0  0
    4.5390   -0.1936    8.3799 O   0  0  0  0  0  0  0  0  0  0  0  0
    4.8897   -1.5708    8.5561 C   0  0  2  0  0  0  0  0  0  0  0  0
    1.7650   -6.1335    6.2256 C   0  0  1  0  0  0  0  0  0  0  0  0
    0.4936   -5.2261    6.3013 C   0  0  0  0  0  0  0  0  0  0  0  0
    1.3779   -7.4480    7.0501 C   0  0  0  0  0  0  0  0  0  0  0  0
    0.7730   -8.6957    6.2985 C   0  0  0  0  0  0  0  0  0  0  0  0
    1.3161   -8.8449    4.8632 C   0  0  1  0  0  0  0  0  0  0  0  0
    2.7750   -9.4281    4.8567 C   0  0  1  0  0  0  0  0  0  0  0  0
    3.4890   -9.2487    6.0669 O   0  0  0  0  0  0  0  0  0  0  0  0
    4.9257  -11.0512    3.9464 H   0  0  0  0  0  0  0  0  0  0  0  0
    4.2006  -12.6100    4.3587 H   0  0  0  0  0  0  0  0  0  0  0  0
    4.6269  -11.4888    5.6337 H   0  0  0  0  0  0  0  0  0  0  0  0
    2.2053  -11.4698    5.2813 H   0  0  0  0  0  0  0  0  0  0  0  0
    2.7682  -10.6660    2.3924 H   0  0  0  0  0  0  0  0  0  0  0  0
    2.2973  -12.2570    2.8971 H   0  0  0  0  0  0  0  0  0  0  0  0
    0.3422  -10.8800    2.0947 H   0  0  0  0  0  0  0  0  0  0  0  0
    0.1909  -11.5282    3.7023 H   0  0  0  0  0  0  0  0  0  0  0  0
   -0.5813   -9.3401    4.0126 H   0  0  0  0  0  0  0  0  0  0  0  0
    1.9114   -7.2154    1.2179 H   0  0  0  0  0  0  0  0  0  0  0  0
    1.6389   -8.9358    1.0421 H   0  0  0  0  0  0  0  0  0  0  0  0
    2.8271   -8.3602    2.1805 H   0  0  0  0  0  0  0  0  0  0  0  0
   -0.3789   -6.5932    1.7230 H   0  0  0  0  0  0  0  0  0  0  0  0
   -1.3712   -7.5768    2.7805 H   0  0  0  0  0  0  0  0  0  0  0  0
   -0.7924   -8.2526    1.2834 H   0  0  0  0  0  0  0  0  0  0  0  0
   -0.0022   -7.1780    4.5403 H   0  0  0  0  0  0  0  0  0  0  0  0
    2.9701   -5.9898    2.9056 H   0  0  0  0  0  0  0  0  0  0  0  0
    4.7769   -4.9842    4.4026 H   0  0  0  0  0  0  0  0  0  0  0  0
    3.6454   -3.8022    3.7693 H   0  0  0  0  0  0  0  0  0  0  0  0
    2.4488   -3.6566    5.7596 H   0  0  0  0  0  0  0  0  0  0  0  0
    4.1555   -7.1969    7.5370 H   0  0  0  0  0  0  0  0  0  0  0  0
    5.1964   -5.9053    7.2357 H   0  0  0  0  0  0  0  0  0  0  0  0
    4.5328   -6.7840    5.8873 H   0  0  0  0  0  0  0  0  0  0  0  0
    1.8870   -4.5472    8.5125 H   0  0  0  0  0  0  0  0  0  0  0  0
    2.9501   -5.8035    8.9608 H   0  0  0  0  0  0  0  0  0  0  0  0
    3.6554   -3.6327    9.8357 H   0  0  0  0  0  0  0  0  0  0  0  0
    4.8768   -4.3436    8.8489 H   0  0  0  0  0  0  0  0  0  0  0  0
    2.4135   -1.0052    7.5409 H   0  0  0  0  0  0  0  0  0  0  0  0
    2.1387   -1.8613    9.0445 H   0  0  0  0  0  0  0  0  0  0  0  0
    1.7288   -2.5948    7.5116 H   0  0  0  0  0  0  0  0  0  0  0  0
    4.4683   -0.8142    5.9503 H   0  0  0  0  0  0  0  0  0  0  0  0
    3.0106   -1.5552    5.3390 H   0  0  0  0  0  0  0  0  0  0  0  0
    4.5545   -1.8665    4.5643 H   0  0  0  0  0  0  0  0  0  0  0  0
    6.1147   -4.1328    6.9224 H   0  0  0  0  0  0  0  0  0  0  0  0
    6.1545   -3.4334    5.3442 H   0  0  0  0  0  0  0  0  0  0  0  0
    7.7800   -2.4214    6.8956 H   0  0  0  0  0  0  0  0  0  0  0  0
    6.6294   -1.2044    6.3746 H   0  0  0  0  0  0  0  0  0  0  0  0
    6.5231   -2.8361    8.9423 H   0  0  0  0  0  0  0  0  0  0  0  0
    8.9220   -0.5834   10.4549 H   0  0  0  0  0  0  0  0  0  0  0  0
    9.1459   -1.6403    9.0698 H   0  0  0  0  0  0  0  0  0  0  0  0
    8.2558   -2.2115   10.4854 H   0  0  0  0  0  0  0  0  0  0  0  0
    7.9751    1.2125    8.9724 H   0  0  0  0  0  0  0  0  0  0  0  0
    6.6412    0.8904    7.8778 H   0  0  0  0  0  0  0  0  0  0  0  0
    8.2210    0.1721    7.5878 H   0  0  0  0  0  0  0  0  0  0  0  0
    6.1875   -1.1466   11.1594 H   0  0  0  0  0  0  0  0  0  0  0  0
    5.4607    0.9865   11.4696 H   0  0  0  0  0  0  0  0  0  0  0  0
    3.8586   -0.7625   10.3685 H   0  0  0  0  0  0  0  0  0  0  0  0
    0.3217   -4.7664    7.2686 H   0  0  0  0  0  0  0  0  0  0  0  0
   -0.4148   -5.7912    6.1099 H   0  0  0  0  0  0  0  0  0  0  0  0
    0.5100   -4.4235    5.5653 H   0  0  0  0  0  0  0  0  0  0  0  0
    2.2207   -7.8204    7.6153 H   0  0  0  0  0  0  0  0  0  0  0  0
    0.6889   -7.1718    7.8466 H   0  0  0  0  0  0  0  0  0  0  0  0
    0.8669   -9.6172    6.8799 H   0  0  0  0  0  0  0  0  0  0  0  0
   -0.3029   -8.5419    6.2362 H   0  0  0  0  0  0  0  0  0  0  0  0
    3.3663   -8.9032    4.1113 H   0  0  0  0  0  0  0  0  0  0  0  0
    3.0860   -9.7827    6.7260 H   0  0  0  0  0  0  0  0  0  0  0  0
  1  2  1  0
  1 40  1  0
  1 41  1  0
  1 42  1  0
  2 38  1  0
  2  3  1  0
  2 43  1  1
  3  4  1  0
  3 44  1  0
  3 45  1  0
  4  5  1  0
  4 46  1  0
  4 47  1  0
  5 37  1  0
  5  6  1  0
  5 48  1  1
  6  7  1  0
  6  8  1  0
  6  9  1  0
  7 49  1  0
  7 50  1  0
  7 51  1  0
  8 52  1  0
  8 53  1  0
  8 54  1  0
  9 37  1  0
  9 10  1  0
  9 55  1  1
 10 33  1  0
 10 11  2  0
 11 12  1  0
 11 56  1  0
 12 13  1  0
 12 57  1  0
 12 58  1  0
 13 20  1  0
 13 14  1  0
 13 59  1  6
 14 15  1  1
 14 16  1  0
 14 33  1  0
 15 60  1  0
 15 61  1  0
 15 62  1  0
 16 17  1  0
 16 63  1  0
 16 64  1  0
 17 18  1  0
 17 65  1  0
 17 66  1  0
 18 32  1  0
 18 19  1  6
 18 20  1  0
 19 67  1  0
 19 68  1  0
 19 69  1  0
 20 21  1  6
 20 22  1  0
 21 70  1  0
 21 71  1  0
 21 72  1  0
 22 23  1  0
 22 73  1  0
 22 74  1  0
 23 24  1  0
 23 75  1  0
 23 76  1  0
 24 32  1  0
 24 25  1  0
 24 77  1  1
 25 26  1  0
 25 27  1  0
 25 28  1  0
 26 78  1  0
 26 79  1  0
 26 80  1  0
 27 81  1  0
 27 82  1  0
 27 83  1  0
 28 29  1  0
 28 30  1  0
 28 84  1  1
 29 85  1  0
 30 32  1  0
 30 31  1  0
 30 86  1  1
 32 31  1  6
 33 34  1  6
 33 35  1  0
 34 87  1  0
 34 88  1  0
 34 89  1  0
 35 36  1  0
 35 90  1  0
 35 91  1  0
 37 36  1  1
 36 92  1  0
 36 93  1  0
 37 38  1  0
 38 39  1  0
 38 94  1  6
 39 95  1  0
M  END
>  <i_m_ct_stereo_status>  (322) 
1

>  <s_m_source_file>  (322) 
/var/tmp/pbs.5076255.sched01/tmpay8aiv4m/132fzfu5vr2.sdf

>  <i_m_source_file_index>  (322) 
22

>  <i_lp_mmshare_version>  (322) 
48012

>  <i_f3d_flags>  (322) 
0

>  <s_epik_input>  (322) 
W09IXVtDQEhdMVtDQEhdKFtDSDNdKVtDSDJdW0NIMl1bQ0BIXShDMihbQ0gzXSlbQ0gzXSlbQ0BdMShbQ0gyXVtDSDJdMylbQ0BIXTJDKD1bQ0hdW0NIMl00KVtDQF0zKFtDSDNdKVtDQF0oW0NIM10pKFtDSDJdW0NIMl01KVtDQEhdNFtDQEBdKFtDSDNdKShbQ0BAXTUoW0NAXTY3OClbQ0gzXSlbQ0gyXVtDSDJdW0NASF02QyhbQ0gzXSkoW0NIM10pW0NAQEhdKFtPSF0pW0NASF03Tzg=

>  <s_epik_cmdline>  (322) 
J2VwaWtfcHl0aG9uJywgJy1waHQnLCAnMi4wJywgJy1waCcsICc3LjAnLCAnLXRuJywgJzgnLCAnLW1hJywgJzIwMCcsICctaW1hZScsICc8aW5maWxlLm1hZT4nLCAnLW9tYWUnLCAnPG91dGZpbGUubWFlPic=

>  <r_lp_tautomer_probability>  (322) 
1

>  <r_epik_Ionization_Penalty>  (322) 
3.19236e-06

>  <r_epik_Ionization_Penalty_Charging>  (322) 
0

>  <r_epik_Ionization_Penalty_Neutral>  (322) 
3.19236e-06

>  <r_epik_State_Penalty>  (322) 
-0

>  <r_epik_Charging_Adjusted_Penalty>  (322) 
0

>  <i_epik_Tot_Q>  (322) 
0

>  <i_epik_Tot_abs_Q>  (322) 
0

>  <s_lp_Force_Field>  (322) 
OPLS3e

>  <r_lp_Energy>  (322) 
136.777

>  <b_lp_Chiralities_Consistent>  (322) 
1

>  <s_lp_Variant>  (322) 
93:0-1

>  <s_i_glide_gridfile>  (322) 
pfpi4k_grid

>  <i_i_glide_lignum>  (322) 
22

>  <i_i_glide_rotatable_bonds>  (322) 
2

>  <r_i_docking_score>  (322) 
-1.64432

>  <r_i_glide_ligand_efficiency>  (322) 
-0.0421622

>  <r_i_glide_ligand_efficiency_sa>  (322) 
-0.142981

>  <r_i_glide_ligand_efficiency_ln>  (322) 
-0.35259

>  <r_i_glide_gscore>  (322) 
-1.64432

>  <r_i_glide_lipo>  (322) 
-0.285544

>  <r_i_glide_hbond>  (322) 
0

>  <r_i_glide_metal>  (322) 
-0

>  <r_i_glide_rewards>  (322) 
0

>  <r_i_glide_evdw>  (322) 
-19.8386

>  <r_i_glide_ecoul>  (322) 
-2.44566

>  <r_i_glide_erotb>  (322) 
0

>  <r_i_glide_esite>  (322) 
0

>  <r_i_glide_emodel>  (322) 
-23.7612

>  <r_i_glide_energy>  (322) 
-22.2843

>  <r_i_glide_einternal>  (322) 
0.412709

>  <r_i_glide_intrahb_reward>  (322) 
-0

>  <i_i_glide_confnum>  (322) 
1

>  <i_i_glide_posenum>  (322) 
7

>  <r_i_glide_eff_state_penalty>  (322) 
0

>  <ligand_id>  (322) 
93

>  <original_smiles>  (322) 
CC1CCC2C(C)(C)C3C4=CCC5C(C)(CCC6(C)C5(C)CCC5C(C)(C)C(O)C7OC756)C4(C)CCC23C1O

>  <smiles>  (322) 
[H]OC1([H])C2([H])OC23C([H])(C([H])([H])C([H])([H])C2(C([H])([H])[H])C4([H])C([H])([H])C([H])=C5C6([H])C(C([H])([H])[H])(C([H])([H])[H])C7([H])C([H])([H])C([H])([H])C([H])(C([H])([H])[H])C([H])(O[H])C67C([H])([H])C([H])([H])C5(C([H])([H])[H])C4(C([H])([H])[H])C([H])([H])C([H])([H])C32C([H])([H])[H])C1(C([H])([H])[H])C([H])([H])[H]

$$$$
93:0:1
     RDKit          3D

 95102  0  0  1  0  0  0  0  0999 V2000
    5.8576  -10.1454    5.6204 C   0  0  0  0  0  0  0  0  0  0  0  0
    4.3294  -10.2965    5.5096 C   0  0  2  0  0  0  0  0  0  0  0  0
    3.9757  -11.2934    4.3966 C   0  0  0  0  0  0  0  0  0  0  0  0
    2.4735  -11.6133    4.3958 C   0  0  0  0  0  0  0  0  0  0  0  0
    1.5736  -10.3712    4.4735 C   0  0  2  0  0  0  0  0  0  0  0  0
    1.2875   -9.5025    3.1970 C   0  0  0  0  0  0  0  0  0  0  0  0
    2.3434   -9.4576    2.0835 C   0  0  0  0  0  0  0  0  0  0  0  0
   -0.0262   -9.8956    2.5112 C   0  0  0  0  0  0  0  0  0  0  0  0
    1.1653   -8.3754    4.2387 C   0  0  2  0  0  0  0  0  0  0  0  0
    1.5079   -6.8981    4.1986 C   0  0  0  0  0  0  0  0  0  0  0  0
    2.0428   -6.2370    3.1364 C   0  0  0  0  0  0  0  0  0  0  0  0
    2.3076   -4.7404    3.1125 C   0  0  0  0  0  0  0  0  0  0  0  0
    1.7146   -3.9630    4.3214 C   0  0  1  0  0  0  0  0  0  0  0  0
    1.9332   -4.7870    5.6583 C   0  0  1  0  0  0  0  0  0  0  0  0
    3.4588   -5.0362    5.8733 C   0  0  0  0  0  0  0  0  0  0  0  0
    1.4782   -3.9495    6.8979 C   0  0  0  0  0  0  0  0  0  0  0  0
    1.8781   -2.4641    6.8610 C   0  0  0  0  0  0  0  0  0  0  0  0
    1.3424   -1.7187    5.6117 C   0  0  2  0  0  0  0  0  0  0  0  0
   -0.2158   -1.8196    5.6373 C   0  0  0  0  0  0  0  0  0  0  0  0
    1.9527   -2.3870    4.3083 C   0  0  2  0  0  0  0  0  0  0  0  0
    1.2331   -1.8262    3.0481 C   0  0  0  0  0  0  0  0  0  0  0  0
    3.4577   -1.9806    4.1361 C   0  0  0  0  0  0  0  0  0  0  0  0
    3.7092   -0.4593    4.1722 C   0  0  0  0  0  0  0  0  0  0  0  0
    3.2051    0.1094    5.4983 C   0  0  1  0  0  0  0  0  0  0  0  0
    3.3478    1.6415    5.7668 C   0  0  0  0  0  0  0  0  0  0  0  0
    4.7214    1.9975    6.3724 C   0  0  0  0  0  0  0  0  0  0  0  0
    3.1557    2.4991    4.4903 C   0  0  0  0  0  0  0  0  0  0  0  0
    2.2025    1.8895    6.8006 C   0  0  1  0  0  0  0  0  0  0  0  0
    1.6900    3.2065    6.8247 O   0  0  0  0  0  0  0  0  0  0  0  0
    1.1262    0.8844    6.4874 C   0  0  1  0  0  0  0  0  0  0  0  0
    0.8054    0.6916    5.1004 O   0  0  0  0  0  0  0  0  0  0  0  0
    1.7354   -0.2216    5.6961 C   0  0  2  0  0  0  0  0  0  0  0  0
    1.1385   -6.1871    5.5248 C   0  0  1  0  0  0  0  0  0  0  0  0
   -0.4048   -5.9712    5.4354 C   0  0  0  0  0  0  0  0  0  0  0  0
    1.3435   -7.1316    6.7972 C   0  0  0  0  0  0  0  0  0  0  0  0
    1.4002   -8.6961    6.6079 C   0  0  0  0  0  0  0  0  0  0  0  0
    2.0291   -9.1111    5.2619 C   0  0  1  0  0  0  0  0  0  0  0  0
    3.5925   -8.9552    5.2738 C   0  0  1  0  0  0  0  0  0  0  0  0
    4.0863   -8.0424    6.2379 O   0  0  0  0  0  0  0  0  0  0  0  0
    6.2893   -9.6763    4.7339 H   0  0  0  0  0  0  0  0  0  0  0  0
    6.3321  -11.1200    5.7528 H   0  0  0  0  0  0  0  0  0  0  0  0
    6.1342   -9.5431    6.4888 H   0  0  0  0  0  0  0  0  0  0  0  0
    3.9820  -10.7229    6.4529 H   0  0  0  0  0  0  0  0  0  0  0  0
    4.2731  -10.8905    3.4260 H   0  0  0  0  0  0  0  0  0  0  0  0
    4.5467  -12.2195    4.5177 H   0  0  0  0  0  0  0  0  0  0  0  0
    2.2362  -12.2244    3.5213 H   0  0  0  0  0  0  0  0  0  0  0  0
    2.2830  -12.2482    5.2599 H   0  0  0  0  0  0  0  0  0  0  0  0
    0.6096  -10.6658    4.8837 H   0  0  0  0  0  0  0  0  0  0  0  0
    2.0019   -8.8659    1.2341 H   0  0  0  0  0  0  0  0  0  0  0  0
    2.5507  -10.4603    1.7034 H   0  0  0  0  0  0  0  0  0  0  0  0
    3.2923   -9.0464    2.4071 H   0  0  0  0  0  0  0  0  0  0  0  0
   -0.3571   -9.1419    1.8000 H   0  0  0  0  0  0  0  0  0  0  0  0
   -0.8329  -10.0124    3.2359 H   0  0  0  0  0  0  0  0  0  0  0  0
    0.0565  -10.8549    1.9992 H   0  0  0  0  0  0  0  0  0  0  0  0
    0.1184   -8.4364    4.5390 H   0  0  0  0  0  0  0  0  0  0  0  0
    2.3066   -6.7689    2.2390 H   0  0  0  0  0  0  0  0  0  0  0  0
    3.3869   -4.5978    3.0481 H   0  0  0  0  0  0  0  0  0  0  0  0
    1.8791   -4.3545    2.1876 H   0  0  0  0  0  0  0  0  0  0  0  0
    0.6468   -4.0261    4.1357 H   0  0  0  0  0  0  0  0  0  0  0  0
    3.6782   -5.5315    6.8121 H   0  0  0  0  0  0  0  0  0  0  0  0
    4.0371   -4.1274    5.9500 H   0  0  0  0  0  0  0  0  0  0  0  0
    3.9100   -5.6351    5.0880 H   0  0  0  0  0  0  0  0  0  0  0  0
    0.4101   -3.9918    7.0729 H   0  0  0  0  0  0  0  0  0  0  0  0
    1.9007   -4.3917    7.7983 H   0  0  0  0  0  0  0  0  0  0  0  0
    1.5036   -1.9790    7.7604 H   0  0  0  0  0  0  0  0  0  0  0  0
    2.9611   -2.3907    6.9383 H   0  0  0  0  0  0  0  0  0  0  0  0
   -0.6781   -1.2161    4.8624 H   0  0  0  0  0  0  0  0  0  0  0  0
   -0.6086   -1.4848    6.5923 H   0  0  0  0  0  0  0  0  0  0  0  0
   -0.5677   -2.8309    5.4774 H   0  0  0  0  0  0  0  0  0  0  0  0
    1.1485   -0.7422    3.0628 H   0  0  0  0  0  0  0  0  0  0  0  0
    0.2198   -2.2153    2.9480 H   0  0  0  0  0  0  0  0  0  0  0  0
    1.7686   -2.0783    2.1333 H   0  0  0  0  0  0  0  0  0  0  0  0
    4.0685   -2.3883    4.9245 H   0  0  0  0  0  0  0  0  0  0  0  0
    3.8664   -2.3785    3.2086 H   0  0  0  0  0  0  0  0  0  0  0  0
    4.7792   -0.2681    4.0834 H   0  0  0  0  0  0  0  0  0  0  0  0
    3.2346    0.0355    3.3192 H   0  0  0  0  0  0  0  0  0  0  0  0
    3.7441   -0.3997    6.2915 H   0  0  0  0  0  0  0  0  0  0  0  0
    4.7753    3.0613    6.6147 H   0  0  0  0  0  0  0  0  0  0  0  0
    5.5287    1.7799    5.6717 H   0  0  0  0  0  0  0  0  0  0  0  0
    4.9211    1.4432    7.2917 H   0  0  0  0  0  0  0  0  0  0  0  0
    3.2067    3.5677    4.7119 H   0  0  0  0  0  0  0  0  0  0  0  0
    2.2057    2.3166    3.9848 H   0  0  0  0  0  0  0  0  0  0  0  0
    3.9420    2.2965    3.7677 H   0  0  0  0  0  0  0  0  0  0  0  0
    2.5644    1.6712    7.8072 H   0  0  0  0  0  0  0  0  0  0  0  0
    1.3397    3.3834    5.9713 H   0  0  0  0  0  0  0  0  0  0  0  0
    0.3596    0.6629    7.2298 H   0  0  0  0  0  0  0  0  0  0  0  0
   -0.8235   -5.3147    6.1915 H   0  0  0  0  0  0  0  0  0  0  0  0
   -0.9493   -6.9029    5.5562 H   0  0  0  0  0  0  0  0  0  0  0  0
   -0.6984   -5.5812    4.4652 H   0  0  0  0  0  0  0  0  0  0  0  0
    2.2340   -6.8624    7.3481 H   0  0  0  0  0  0  0  0  0  0  0  0
    0.5631   -6.9125    7.5252 H   0  0  0  0  0  0  0  0  0  0  0  0
    1.8644   -9.2007    7.4584 H   0  0  0  0  0  0  0  0  0  0  0  0
    0.3708   -9.0557    6.6290 H   0  0  0  0  0  0  0  0  0  0  0  0
    3.9192   -8.5429    4.3225 H   0  0  0  0  0  0  0  0  0  0  0  0
    3.8360   -8.3501    7.0881 H   0  0  0  0  0  0  0  0  0  0  0  0
  1  2  1  0
  1 40  1  0
  1 41  1  0
  1 42  1  0
  2 38  1  0
  2  3  1  0
  2 43  1  1
  3  4  1  0
  3 44  1  0
  3 45  1  0
  4  5  1  0
  4 46  1  0
  4 47  1  0
  5 37  1  0
  5  6  1  0
  5 48  1  1
  6  7  1  0
  6  8  1  0
  6  9  1  0
  7 49  1  0
  7 50  1  0
  7 51  1  0
  8 52  1  0
  8 53  1  0
  8 54  1  0
  9 37  1  0
  9 10  1  0
  9 55  1  1
 10 33  1  0
 10 11  2  0
 11 12  1  0
 11 56  1  0
 12 13  1  0
 12 57  1  0
 12 58  1  0
 13 20  1  0
 13 14  1  0
 13 59  1  6
 14 15  1  1
 14 16  1  0
 14 33  1  0
 15 60  1  0
 15 61  1  0
 15 62  1  0
 16 17  1  0
 16 63  1  0
 16 64  1  0
 17 18  1  0
 17 65  1  0
 17 66  1  0
 18 32  1  0
 18 19  1  6
 18 20  1  0
 19 67  1  0
 19 68  1  0
 19 69  1  0
 20 21  1  6
 20 22  1  0
 21 70  1  0
 21 71  1  0
 21 72  1  0
 22 23  1  0
 22 73  1  0
 22 74  1  0
 23 24  1  0
 23 75  1  0
 23 76  1  0
 24 32  1  0
 24 25  1  0
 24 77  1  1
 25 26  1  0
 25 27  1  0
 25 28  1  0
 26 78  1  0
 26 79  1  0
 26 80  1  0
 27 81  1  0
 27 82  1  0
 27 83  1  0
 28 29  1  0
 28 30  1  0
 28 84  1  1
 29 85  1  0
 30 32  1  0
 30 31  1  0
 30 86  1  1
 32 31  1  6
 33 34  1  6
 33 35  1  0
 34 87  1  0
 34 88  1  0
 34 89  1  0
 35 36  1  0
 35 90  1  0
 35 91  1  0
 37 36  1  1
 36 92  1  0
 36 93  1  0
 37 38  1  0
 38 39  1  0
 38 94  1  6
 39 95  1  0
M  END
>  <i_m_ct_stereo_status>  (323) 
1

>  <s_m_source_file>  (323) 
/var/tmp/pbs.5076255.sched01/tmpay8aiv4m/132fzfu5vr2.sdf

>  <i_m_source_file_index>  (323) 
22

>  <i_lp_mmshare_version>  (323) 
48012

>  <i_f3d_flags>  (323) 
0

>  <s_epik_input>  (323) 
W09IXVtDQEhdMVtDQEhdKFtDSDNdKVtDSDJdW0NIMl1bQ0BIXShDMihbQ0gzXSlbQ0gzXSlbQ0BdMShbQ0gyXVtDSDJdMylbQ0BIXTJDKD1bQ0hdW0NIMl00KVtDQF0zKFtDSDNdKVtDQF0oW0NIM10pKFtDSDJdW0NIMl01KVtDQEhdNFtDQEBdKFtDSDNdKShbQ0BAXTUoW0NAXTY3OClbQ0gzXSlbQ0gyXVtDSDJdW0NASF02QyhbQ0gzXSkoW0NIM10pW0NAQEhdKFtPSF0pW0NASF03Tzg=

>  <s_epik_cmdline>  (323) 
J2VwaWtfcHl0aG9uJywgJy1waHQnLCAnMi4wJywgJy1waCcsICc3LjAnLCAnLXRuJywgJzgnLCAnLW1hJywgJzIwMCcsICctaW1hZScsICc8aW5maWxlLm1hZT4nLCAnLW9tYWUnLCAnPG91dGZpbGUubWFlPic=

>  <r_lp_tautomer_probability>  (323) 
1

>  <r_epik_Ionization_Penalty>  (323) 
3.19236e-06

>  <r_epik_Ionization_Penalty_Charging>  (323) 
0

>  <r_epik_Ionization_Penalty_Neutral>  (323) 
3.19236e-06

>  <r_epik_State_Penalty>  (323) 
-0

>  <r_epik_Charging_Adjusted_Penalty>  (323) 
0

>  <i_epik_Tot_Q>  (323) 
0

>  <i_epik_Tot_abs_Q>  (323) 
0

>  <s_lp_Force_Field>  (323) 
OPLS3e

>  <r_lp_Energy>  (323) 
136.777

>  <b_lp_Chiralities_Consistent>  (323) 
1

>  <s_lp_Variant>  (323) 
93:0-1

>  <s_i_glide_gridfile>  (323) 
pfpi4k_grid

>  <i_i_glide_lignum>  (323) 
22

>  <i_i_glide_rotatable_bonds>  (323) 
2

>  <r_i_docking_score>  (323) 
-1.25693

>  <r_i_glide_ligand_efficiency>  (323) 
-0.032229

>  <r_i_glide_ligand_efficiency_sa>  (323) 
-0.109295

>  <r_i_glide_ligand_efficiency_ln>  (323) 
-0.269521

>  <r_i_glide_gscore>  (323) 
-1.25693

>  <r_i_glide_lipo>  (323) 
-0.117687

>  <r_i_glide_hbond>  (323) 
0

>  <r_i_glide_metal>  (323) 
-0

>  <r_i_glide_rewards>  (323) 
0

>  <r_i_glide_evdw>  (323) 
-19.7464

>  <r_i_glide_ecoul>  (323) 
-1.01281

>  <r_i_glide_erotb>  (323) 
0

>  <r_i_glide_esite>  (323) 
0

>  <r_i_glide_emodel>  (323) 
-21.8777

>  <r_i_glide_energy>  (323) 
-20.7592

>  <r_i_glide_einternal>  (323) 
0.0240637

>  <r_i_glide_intrahb_reward>  (323) 
-0

>  <i_i_glide_confnum>  (323) 
1

>  <i_i_glide_posenum>  (323) 
24

>  <r_i_glide_eff_state_penalty>  (323) 
0

>  <ligand_id>  (323) 
93

>  <original_smiles>  (323) 
CC1CCC2C(C)(C)C3C4=CCC5C(C)(CCC6(C)C5(C)CCC5C(C)(C)C(O)C7OC756)C4(C)CCC23C1O

>  <smiles>  (323) 
[H]OC1([H])C2([H])OC23C([H])(C([H])([H])C([H])([H])C2(C([H])([H])[H])C4([H])C([H])([H])C([H])=C5C6([H])C(C([H])([H])[H])(C([H])([H])[H])C7([H])C([H])([H])C([H])([H])C([H])(C([H])([H])[H])C([H])(O[H])C67C([H])([H])C([H])([H])C5(C([H])([H])[H])C4(C([H])([H])[H])C([H])([H])C([H])([H])C32C([H])([H])[H])C1(C([H])([H])[H])C([H])([H])[H]

$$$$
93:0:2
     RDKit          3D

 95102  0  0  1  0  0  0  0  0999 V2000
    5.4472  -10.4332    5.7173 C   0  0  0  0  0  0  0  0  0  0  0  0
    3.9182  -10.4978    5.5497 C   0  0  2  0  0  0  0  0  0  0  0  0
    3.5541  -11.4116    4.3702 C   0  0  0  0  0  0  0  0  0  0  0  0
    2.0399  -11.6485    4.3028 C   0  0  0  0  0  0  0  0  0  0  0  0
    1.2050  -10.3661    4.4240 C   0  0  2  0  0  0  0  0  0  0  0  0
    1.0028   -9.4154    3.1935 C   0  0  0  0  0  0  0  0  0  0  0  0
    2.0939   -9.3592    2.1142 C   0  0  0  0  0  0  0  0  0  0  0  0
   -0.3068   -9.7100    2.4579 C   0  0  0  0  0  0  0  0  0  0  0  0
    0.9046   -8.3427    4.2917 C   0  0  2  0  0  0  0  0  0  0  0  0
    1.3254   -6.8873    4.3421 C   0  0  0  0  0  0  0  0  0  0  0  0
    1.9289   -6.1991    3.3343 C   0  0  0  0  0  0  0  0  0  0  0  0
    2.2693   -4.7196    3.4025 C   0  0  0  0  0  0  0  0  0  0  0  0
    1.6768   -3.9779    4.6338 C   0  0  1  0  0  0  0  0  0  0  0  0
    1.8079   -4.8819    5.9291 C   0  0  1  0  0  0  0  0  0  0  0  0
    3.3090   -5.2238    6.1790 C   0  0  0  0  0  0  0  0  0  0  0  0
    1.3505   -4.0913    7.1983 C   0  0  0  0  0  0  0  0  0  0  0  0
    1.8273   -2.6298    7.2575 C   0  0  0  0  0  0  0  0  0  0  0  0
    1.3747   -1.7923    6.0342 C   0  0  2  0  0  0  0  0  0  0  0  0
   -0.1843   -1.8100    6.0045 C   0  0  0  0  0  0  0  0  0  0  0  0
    1.9931   -2.4191    4.7144 C   0  0  2  0  0  0  0  0  0  0  0  0
    1.3440   -1.7547    3.4652 C   0  0  0  0  0  0  0  0  0  0  0  0
    3.5212   -2.0838    4.6138 C   0  0  0  0  0  0  0  0  0  0  0  0
    3.8498   -0.5827    4.7439 C   0  0  0  0  0  0  0  0  0  0  0  0
    3.3303   -0.0600    6.0832 C   0  0  1  0  0  0  0  0  0  0  0  0
    3.5414    1.4481    6.4411 C   0  0  0  0  0  0  0  0  0  0  0  0
    4.9108    1.6956    7.1090 C   0  0  0  0  0  0  0  0  0  0  0  0
    3.4459    2.3805    5.2076 C   0  0  0  0  0  0  0  0  0  0  0  0
    2.3698    1.6989    7.4476 C   0  0  1  0  0  0  0  0  0  0  0  0
    1.9078    3.0367    7.5637 O   0  0  0  0  0  0  0  0  0  0  0  0
    1.2595    0.7681    7.0437 C   0  0  1  0  0  0  0  0  0  0  0  0
    0.9785    0.6631    5.6397 O   0  0  0  0  0  0  0  0  0  0  0  0
    1.8406   -0.3242    6.2146 C   0  0  2  0  0  0  0  0  0  0  0  0
    0.9508   -6.2278    5.6921 C   0  0  1  0  0  0  0  0  0  0  0  0
   -0.5689   -5.9154    5.5577 C   0  0  0  0  0  0  0  0  0  0  0  0
    1.0563   -7.2511    6.9162 C   0  0  0  0  0  0  0  0  0  0  0  0
    1.0401   -8.8045    6.6433 C   0  0  0  0  0  0  0  0  0  0  0  0
    1.6940   -9.1784    5.2976 C   0  0  1  0  0  0  0  0  0  0  0  0
    3.2604   -9.1074    5.3679 C   0  0  1  0  0  0  0  0  0  0  0  0
    3.7657   -8.2757    6.3946 O   0  0  0  0  0  0  0  0  0  0  0  0
    5.9320   -9.9405    4.8722 H   0  0  0  0  0  0  0  0  0  0  0  0
    5.8654  -11.4376    5.8098 H   0  0  0  0  0  0  0  0  0  0  0  0
    5.7236   -9.8944    6.6262 H   0  0  0  0  0  0  0  0  0  0  0  0
    3.5163  -10.9564    6.4559 H   0  0  0  0  0  0  0  0  0  0  0  0
    3.9059  -10.9727    3.4341 H   0  0  0  0  0  0  0  0  0  0  0  0
    4.0712  -12.3727    4.4578 H   0  0  0  0  0  0  0  0  0  0  0  0
    1.7987  -12.1990    3.3912 H   0  0  0  0  0  0  0  0  0  0  0  0
    1.7900  -12.3130    5.1255 H   0  0  0  0  0  0  0  0  0  0  0  0
    0.2157  -10.6319    4.7875 H   0  0  0  0  0  0  0  0  0  0  0  0
    1.8131   -8.7061    1.2878 H   0  0  0  0  0  0  0  0  0  0  0  0
    2.2590  -10.3455    1.6811 H   0  0  0  0  0  0  0  0  0  0  0  0
    3.0533   -9.0225    2.4897 H   0  0  0  0  0  0  0  0  0  0  0  0
   -0.5708   -8.9142    1.7643 H   0  0  0  0  0  0  0  0  0  0  0  0
   -1.1435   -9.8195    3.1486 H   0  0  0  0  0  0  0  0  0  0  0  0
   -0.2516  -10.6488    1.9038 H   0  0  0  0  0  0  0  0  0  0  0  0
   -0.1539   -8.3675    4.5545 H   0  0  0  0  0  0  0  0  0  0  0  0
    2.1953   -6.6938    2.4170 H   0  0  0  0  0  0  0  0  0  0  0  0
    3.3557   -4.6312    3.3808 H   0  0  0  0  0  0  0  0  0  0  0  0
    1.8919   -4.2621    2.4878 H   0  0  0  0  0  0  0  0  0  0  0  0
    0.6154   -3.9711    4.4094 H   0  0  0  0  0  0  0  0  0  0  0  0
    3.4681   -5.7811    7.0950 H   0  0  0  0  0  0  0  0  0  0  0  0
    3.9300   -4.3523    6.3248 H   0  0  0  0  0  0  0  0  0  0  0  0
    3.7548   -5.8031    5.3758 H   0  0  0  0  0  0  0  0  0  0  0  0
    0.2764   -4.0862    7.3373 H   0  0  0  0  0  0  0  0  0  0  0  0
    1.7183   -4.6033    8.0854 H   0  0  0  0  0  0  0  0  0  0  0  0
    1.4461   -2.1746    8.1702 H   0  0  0  0  0  0  0  0  0  0  0  0
    2.9089   -2.6192    7.3738 H   0  0  0  0  0  0  0  0  0  0  0  0
   -0.5895   -1.1418    5.2508 H   0  0  0  0  0  0  0  0  0  0  0  0
   -0.5856   -1.5047    6.9653 H   0  0  0  0  0  0  0  0  0  0  0  0
   -0.5844   -2.7906    5.7789 H   0  0  0  0  0  0  0  0  0  0  0  0
    1.3169   -0.6702    3.5391 H   0  0  0  0  0  0  0  0  0  0  0  0
    0.3154   -2.0809    3.3029 H   0  0  0  0  0  0  0  0  0  0  0  0
    1.9000   -1.9845    2.5571 H   0  0  0  0  0  0  0  0  0  0  0  0
    4.0824   -2.5649    5.3979 H   0  0  0  0  0  0  0  0  0  0  0  0
    3.9420   -2.4522    3.6794 H   0  0  0  0  0  0  0  0  0  0  0  0
    4.9306   -0.4450    4.7011 H   0  0  0  0  0  0  0  0  0  0  0  0
    3.4307   -0.0174    3.9061 H   0  0  0  0  0  0  0  0  0  0  0  0
    3.8151   -0.6397    6.8637 H   0  0  0  0  0  0  0  0  0  0  0  0
    5.0140    2.7388    7.4123 H   0  0  0  0  0  0  0  0  0  0  0  0
    5.7278    1.4750    6.4198 H   0  0  0  0  0  0  0  0  0  0  0  0
    5.0512    1.0802    7.9999 H   0  0  0  0  0  0  0  0  0  0  0  0
    3.5323    3.4301    5.4937 H   0  0  0  0  0  0  0  0  0  0  0  0
    2.5049    2.2736    4.6657 H   0  0  0  0  0  0  0  0  0  0  0  0
    4.2501    2.1842    4.4997 H   0  0  0  0  0  0  0  0  0  0  0  0
    2.6901    1.3949    8.4484 H   0  0  0  0  0  0  0  0  0  0  0  0
    2.6154    3.5852    7.8449 H   0  0  0  0  0  0  0  0  0  0  0  0
    0.4587    0.5496    7.7489 H   0  0  0  0  0  0  0  0  0  0  0  0
   -0.9886   -5.2901    6.3404 H   0  0  0  0  0  0  0  0  0  0  0  0
   -1.1549   -6.8233    5.5890 H   0  0  0  0  0  0  0  0  0  0  0  0
   -0.8029   -5.4588    4.6005 H   0  0  0  0  0  0  0  0  0  0  0  0
    1.9391   -7.0613    7.5107 H   0  0  0  0  0  0  0  0  0  0  0  0
    0.2618   -7.0297    7.6281 H   0  0  0  0  0  0  0  0  0  0  0  0
    1.4478   -9.3792    7.4782 H   0  0  0  0  0  0  0  0  0  0  0  0
   -0.0059   -9.1119    6.6097 H   0  0  0  0  0  0  0  0  0  0  0  0
    3.6400   -8.6633    4.4512 H   0  0  0  0  0  0  0  0  0  0  0  0
    3.4733   -8.6179    7.2191 H   0  0  0  0  0  0  0  0  0  0  0  0
  1  2  1  0
  1 40  1  0
  1 41  1  0
  1 42  1  0
  2 38  1  0
  2  3  1  0
  2 43  1  1
  3  4  1  0
  3 44  1  0
  3 45  1  0
  4  5  1  0
  4 46  1  0
  4 47  1  0
  5 37  1  0
  5  6  1  0
  5 48  1  1
  6  7  1  0
  6  8  1  0
  6  9  1  0
  7 49  1  0
  7 50  1  0
  7 51  1  0
  8 52  1  0
  8 53  1  0
  8 54  1  0
  9 37  1  0
  9 10  1  0
  9 55  1  1
 10 33  1  0
 10 11  2  0
 11 12  1  0
 11 56  1  0
 12 13  1  0
 12 57  1  0
 12 58  1  0
 13 20  1  0
 13 14  1  0
 13 59  1  6
 14 15  1  1
 14 16  1  0
 14 33  1  0
 15 60  1  0
 15 61  1  0
 15 62  1  0
 16 17  1  0
 16 63  1  0
 16 64  1  0
 17 18  1  0
 17 65  1  0
 17 66  1  0
 18 32  1  0
 18 19  1  6
 18 20  1  0
 19 67  1  0
 19 68  1  0
 19 69  1  0
 20 21  1  6
 20 22  1  0
 21 70  1  0
 21 71  1  0
 21 72  1  0
 22 23  1  0
 22 73  1  0
 22 74  1  0
 23 24  1  0
 23 75  1  0
 23 76  1  0
 24 32  1  0
 24 25  1  0
 24 77  1  1
 25 26  1  0
 25 27  1  0
 25 28  1  0
 26 78  1  0
 26 79  1  0
 26 80  1  0
 27 81  1  0
 27 82  1  0
 27 83  1  0
 28 29  1  0
 28 30  1  0
 28 84  1  1
 29 85  1  0
 30 32  1  0
 30 31  1  0
 30 86  1  1
 32 31  1  6
 33 34  1  6
 33 35  1  0
 34 87  1  0
 34 88  1  0
 34 89  1  0
 35 36  1  0
 35 90  1  0
 35 91  1  0
 37 36  1  1
 36 92  1  0
 36 93  1  0
 37 38  1  0
 38 39  1  0
 38 94  1  6
 39 95  1  0
M  END
>  <i_m_ct_stereo_status>  (324) 
1

>  <s_m_source_file>  (324) 
/var/tmp/pbs.5076255.sched01/tmpay8aiv4m/132fzfu5vr2.sdf

>  <i_m_source_file_index>  (324) 
22

>  <i_lp_mmshare_version>  (324) 
48012

>  <i_f3d_flags>  (324) 
0

>  <s_epik_input>  (324) 
W09IXVtDQEhdMVtDQEhdKFtDSDNdKVtDSDJdW0NIMl1bQ0BIXShDMihbQ0gzXSlbQ0gzXSlbQ0BdMShbQ0gyXVtDSDJdMylbQ0BIXTJDKD1bQ0hdW0NIMl00KVtDQF0zKFtDSDNdKVtDQF0oW0NIM10pKFtDSDJdW0NIMl01KVtDQEhdNFtDQEBdKFtDSDNdKShbQ0BAXTUoW0NAXTY3OClbQ0gzXSlbQ0gyXVtDSDJdW0NASF02QyhbQ0gzXSkoW0NIM10pW0NAQEhdKFtPSF0pW0NASF03Tzg=

>  <s_epik_cmdline>  (324) 
J2VwaWtfcHl0aG9uJywgJy1waHQnLCAnMi4wJywgJy1waCcsICc3LjAnLCAnLXRuJywgJzgnLCAnLW1hJywgJzIwMCcsICctaW1hZScsICc8aW5maWxlLm1hZT4nLCAnLW9tYWUnLCAnPG91dGZpbGUubWFlPic=

>  <r_lp_tautomer_probability>  (324) 
1

>  <r_epik_Ionization_Penalty>  (324) 
3.19236e-06

>  <r_epik_Ionization_Penalty_Charging>  (324) 
0

>  <r_epik_Ionization_Penalty_Neutral>  (324) 
3.19236e-06

>  <r_epik_State_Penalty>  (324) 
-0

>  <r_epik_Charging_Adjusted_Penalty>  (324) 
0

>  <i_epik_Tot_Q>  (324) 
0

>  <i_epik_Tot_abs_Q>  (324) 
0

>  <s_lp_Force_Field>  (324) 
OPLS3e

>  <r_lp_Energy>  (324) 
136.777

>  <b_lp_Chiralities_Consistent>  (324) 
1

>  <s_lp_Variant>  (324) 
93:0-1

>  <s_i_glide_gridfile>  (324) 
pfpi4k_grid

>  <i_i_glide_lignum>  (324) 
22

>  <i_i_glide_rotatable_bonds>  (324) 
2

>  <r_i_docking_score>  (324) 
-1.24444

>  <r_i_glide_ligand_efficiency>  (324) 
-0.0319088

>  <r_i_glide_ligand_efficiency_sa>  (324) 
-0.108209

>  <r_i_glide_ligand_efficiency_ln>  (324) 
-0.266844

>  <r_i_glide_gscore>  (324) 
-1.24444

>  <r_i_glide_lipo>  (324) 
-0.16263

>  <r_i_glide_hbond>  (324) 
0

>  <r_i_glide_metal>  (324) 
-0

>  <r_i_glide_rewards>  (324) 
0

>  <r_i_glide_evdw>  (324) 
-19.3727

>  <r_i_glide_ecoul>  (324) 
-0.754535

>  <r_i_glide_erotb>  (324) 
0

>  <r_i_glide_esite>  (324) 
0

>  <r_i_glide_emodel>  (324) 
-21.0484

>  <r_i_glide_energy>  (324) 
-20.1272

>  <r_i_glide_einternal>  (324) 
0.325165

>  <r_i_glide_intrahb_reward>  (324) 
-0

>  <i_i_glide_confnum>  (324) 
1

>  <i_i_glide_posenum>  (324) 
1

>  <r_i_glide_eff_state_penalty>  (324) 
0

>  <ligand_id>  (324) 
93

>  <original_smiles>  (324) 
CC1CCC2C(C)(C)C3C4=CCC5C(C)(CCC6(C)C5(C)CCC5C(C)(C)C(O)C7OC756)C4(C)CCC23C1O

>  <smiles>  (324) 
[H]OC1([H])C2([H])OC23C([H])(C([H])([H])C([H])([H])C2(C([H])([H])[H])C4([H])C([H])([H])C([H])=C5C6([H])C(C([H])([H])[H])(C([H])([H])[H])C7([H])C([H])([H])C([H])([H])C([H])(C([H])([H])[H])C([H])(O[H])C67C([H])([H])C([H])([H])C5(C([H])([H])[H])C4(C([H])([H])[H])C([H])([H])C([H])([H])C32C([H])([H])[H])C1(C([H])([H])[H])C([H])([H])[H]

$$$$
94:0:0
     RDKit          3D

 27 29  0  0  1  0  0  0  0  0999 V2000
    0.7579    4.3535    3.2793 N   0  0  0  0  0  0  0  0  0  0  0  0
   -0.1584    4.0119    4.1069 C   0  0  0  0  0  0  0  0  0  0  0  0
   -1.4137    3.3957    3.7886 C   0  0  0  0  0  0  0  0  0  0  0  0
   -2.3321    3.0574    4.7209 C   0  0  0  0  0  0  0  0  0  0  0  0
   -2.0622    3.3073    6.0495 N   0  0  0  0  0  0  0  0  0  0  0  0
   -0.7743    3.9159    6.3616 C   0  0  0  0  0  0  0  0  0  0  0  0
    0.0776    4.2529    5.4418 N   0  0  0  0  0  0  0  0  0  0  0  0
   -0.5198    4.1082    7.7035 O   0  0  0  0  0  0  0  0  0  0  0  0
   -1.4603    3.6010    8.6714 C   0  0  1  0  0  0  0  0  0  0  0  0
   -2.8977    3.8904    8.2679 C   0  0  0  0  0  0  0  0  0  0  0  0
   -2.9873    2.8642    7.1473 C   0  0  2  0  0  0  0  0  0  0  0  0
   -2.4279    1.6948    7.6787 O   0  0  0  0  0  0  0  0  0  0  0  0
   -1.4936    2.0546    8.7076 C   0  0  1  0  0  0  0  0  0  0  0  0
   -0.1483    1.3332    8.5096 C   0  0  0  0  0  0  0  0  0  0  0  0
   -0.1842    0.0456    9.0962 O   0  0  0  0  0  0  0  0  0  0  0  0
    1.6011    4.8146    3.6057 H   0  0  0  0  0  0  0  0  0  0  0  0
   -1.5790    3.1934    2.7415 H   0  0  0  0  0  0  0  0  0  0  0  0
   -3.2574    2.5831    4.4124 H   0  0  0  0  0  0  0  0  0  0  0  0
   -1.2149    4.0300    9.6433 H   0  0  0  0  0  0  0  0  0  0  0  0
   -3.6188    3.6279    9.0421 H   0  0  0  0  0  0  0  0  0  0  0  0
   -3.0788    4.9134    7.9349 H   0  0  0  0  0  0  0  0  0  0  0  0
   -3.9759    2.7398    6.6932 H   0  0  0  0  0  0  0  0  0  0  0  0
   -1.9292    1.7645    9.6640 H   0  0  0  0  0  0  0  0  0  0  0  0
    0.0889    1.2485    7.4500 H   0  0  0  0  0  0  0  0  0  0  0  0
    0.6582    1.8948    8.9789 H   0  0  0  0  0  0  0  0  0  0  0  0
   -0.1850    0.1462   10.0384 H   0  0  0  0  0  0  0  0  0  0  0  0
    0.5909    4.2519    2.2599 H   0  0  0  0  0  0  0  0  0  0  0  0
  1  2  2  3
  1 16  1  0
  1 27  1  0
  2  7  1  0
  2  3  1  0
  3  4  2  0
  3 17  1  0
  4  5  1  0
  4 18  1  0
  5 11  1  0
  5  6  1  0
  6  7  2  0
  6  8  1  0
  8  9  1  0
  9 13  1  0
  9 10  1  0
  9 19  1  1
 10 11  1  0
 10 20  1  0
 10 21  1  0
 11 12  1  0
 11 22  1  6
 12 13  1  0
 13 14  1  0
 13 23  1  1
 14 15  1  0
 14 24  1  0
 14 25  1  0
 15 26  1  0
M  CHG  1   1   1
M  END
>  <i_m_ct_stereo_status>  (325) 
1

>  <s_m_source_file>  (325) 
/var/tmp/pbs.5076255.sched01/tmpay8aiv4m/132fzfu5vr2.sdf

>  <i_m_source_file_index>  (325) 
23

>  <i_lp_mmshare_version>  (325) 
48012

>  <i_f3d_flags>  (325) 
0

>  <s_epik_input>  (325) 
W2NIXTFbY0hdXGMoPU5cW0hdKW5jKG4xMilPW0NASF0zW0NIMl1bQ0BASF0yT1tDQEhdM1tDSDJdW09IXQ==

>  <s_epik_cmdline>  (325) 
J2VwaWtfcHl0aG9uJywgJy1waHQnLCAnMi4wJywgJy1waCcsICc3LjAnLCAnLXRuJywgJzgnLCAnLW1hJywgJzIwMCcsICctaW1hZScsICc8aW5maWxlLm1hZT4nLCAnLW9tYWUnLCAnPG91dGZpbGUubWFlPic=

>  <r_lp_tautomer_probability>  (325) 
1

>  <r_epik_Ionization_Penalty>  (325) 
2.49954e-05

>  <r_epik_Ionization_Penalty_Charging>  (325) 
2.4943e-05

>  <r_epik_Ionization_Penalty_Neutral>  (325) 
5.2411e-08

>  <r_epik_State_Penalty>  (325) 
-0

>  <r_epik_Charging_Adjusted_Penalty>  (325) 
2.4943e-05

>  <i_epik_Tot_Q>  (325) 
1

>  <i_epik_Tot_abs_Q>  (325) 
1

>  <s_epik_Chemistry_Notes>  (325) 
This compound has an imine and may undergo hydrolysis. This compound contains an acetal/aminal-like group ( X-CH(R)-Y where X, Y are N, S, or O) that may be acid/base labile, releasing an aldehyde.

>  <s_lp_Force_Field>  (325) 
OPLS3e

>  <r_lp_Energy>  (325) 
28.4204

>  <b_lp_Chiralities_Consistent>  (325) 
1

>  <s_lp_Variant>  (325) 
94:0-1

>  <s_i_glide_gridfile>  (325) 
pfpi4k_grid

>  <i_i_glide_lignum>  (325) 
23

>  <i_i_glide_rotatable_bonds>  (325) 
2

>  <r_i_docking_score>  (325) 
-4.77771

>  <r_i_glide_ligand_efficiency>  (325) 
-0.318514

>  <r_i_glide_ligand_efficiency_sa>  (325) 
-0.785523

>  <r_i_glide_ligand_efficiency_ln>  (325) 
-1.28847

>  <r_i_glide_gscore>  (325) 
-4.77771

>  <r_i_glide_lipo>  (325) 
-0.113544

>  <r_i_glide_hbond>  (325) 
-0.243945

>  <r_i_glide_metal>  (325) 
-0

>  <r_i_glide_rewards>  (325) 
-2.28151

>  <r_i_glide_evdw>  (325) 
-12.2734

>  <r_i_glide_ecoul>  (325) 
-11.978

>  <r_i_glide_erotb>  (325) 
0.375714

>  <r_i_glide_esite>  (325) 
-0.104055

>  <r_i_glide_emodel>  (325) 
-35.2193

>  <r_i_glide_energy>  (325) 
-24.2514

>  <r_i_glide_einternal>  (325) 
0.459372

>  <r_i_glide_intrahb_reward>  (325) 
-0

>  <i_i_glide_confnum>  (325) 
6

>  <i_i_glide_posenum>  (325) 
2

>  <r_i_glide_eff_state_penalty>  (325) 
0

>  <ligand_id>  (325) 
94

>  <original_smiles>  (325) 
N=c1ccn2c(n1)OC1CC2OC1CO

>  <smiles>  (325) 
[H]OC([H])([H])C1([H])OC2([H])n3c(nc(=[N+]([H])[H])c([H])c3[H])OC1([H])C2([H])[H]

$$$$
94:0:1
     RDKit          3D

 27 29  0  0  1  0  0  0  0  0999 V2000
    1.8192   -3.0459   -3.9180 N   0  0  0  0  0  0  0  0  0  0  0  0
    2.6348   -2.5352   -3.0691 C   0  0  0  0  0  0  0  0  0  0  0  0
    3.4580   -1.3892   -3.2967 C   0  0  0  0  0  0  0  0  0  0  0  0
    4.3019   -0.8939   -2.3652 C   0  0  0  0  0  0  0  0  0  0  0  0
    4.3835   -1.5005   -1.1347 N   0  0  0  0  0  0  0  0  0  0  0  0
    3.5183   -2.6558   -0.9092 C   0  0  0  0  0  0  0  0  0  0  0  0
    2.7193   -3.1160   -1.8338 N   0  0  0  0  0  0  0  0  0  0  0  0
    3.5935   -3.2231    0.3454 O   0  0  0  0  0  0  0  0  0  0  0  0
    4.3974   -2.5752    1.3526 C   0  0  1  0  0  0  0  0  0  0  0  0
    5.7397   -2.1256    0.7920 C   0  0  0  0  0  0  0  0  0  0  0  0
    5.2219   -0.9493   -0.0209 C   0  0  2  0  0  0  0  0  0  0  0  0
    4.3544   -0.2707    0.8358 O   0  0  0  0  0  0  0  0  0  0  0  0
    3.8153   -1.2080    1.7786 C   0  0  1  0  0  0  0  0  0  0  0  0
    2.2836   -1.1022    1.8703 C   0  0  0  0  0  0  0  0  0  0  0  0
    1.7924   -1.7794    3.0079 O   0  0  0  0  0  0  0  0  0  0  0  0
    1.2174   -3.8342   -3.6439 H   0  0  0  0  0  0  0  0  0  0  0  0
    3.3559   -0.9072   -4.2501 H   0  0  0  0  0  0  0  0  0  0  0  0
    4.8958   -0.0141   -2.5882 H   0  0  0  0  0  0  0  0  0  0  0  0
    4.5084   -3.2506    2.2009 H   0  0  0  0  0  0  0  0  0  0  0  0
    6.4173   -1.7599    1.5659 H   0  0  0  0  0  0  0  0  0  0  0  0
    6.2494   -2.8712    0.1796 H   0  0  0  0  0  0  0  0  0  0  0  0
    5.9783   -0.3164   -0.4842 H   0  0  0  0  0  0  0  0  0  0  0  0
    4.2479   -0.9293    2.7437 H   0  0  0  0  0  0  0  0  0  0  0  0
    1.9891   -0.0550    1.9377 H   0  0  0  0  0  0  0  0  0  0  0  0
    1.8117   -1.5013    0.9789 H   0  0  0  0  0  0  0  0  0  0  0  0
    0.8553   -1.6569    3.0335 H   0  0  0  0  0  0  0  0  0  0  0  0
    1.7109   -2.6528   -4.8605 H   0  0  0  0  0  0  0  0  0  0  0  0
  1  2  2  3
  1 16  1  0
  1 27  1  0
  2  7  1  0
  2  3  1  0
  3  4  2  0
  3 17  1  0
  4  5  1  0
  4 18  1  0
  5 11  1  0
  5  6  1  0
  6  7  2  0
  6  8  1  0
  8  9  1  0
  9 13  1  0
  9 10  1  0
  9 19  1  1
 10 11  1  0
 10 20  1  0
 10 21  1  0
 11 12  1  0
 11 22  1  6
 12 13  1  0
 13 14  1  0
 13 23  1  1
 14 15  1  0
 14 24  1  0
 14 25  1  0
 15 26  1  0
M  CHG  1   1   1
M  END
>  <i_m_ct_stereo_status>  (326) 
1

>  <s_m_source_file>  (326) 
/var/tmp/pbs.5076255.sched01/tmpay8aiv4m/132fzfu5vr2.sdf

>  <i_m_source_file_index>  (326) 
23

>  <i_lp_mmshare_version>  (326) 
48012

>  <i_f3d_flags>  (326) 
0

>  <s_epik_input>  (326) 
W2NIXTFbY0hdXGMoPU5cW0hdKW5jKG4xMilPW0NASF0zW0NIMl1bQ0BASF0yT1tDQEhdM1tDSDJdW09IXQ==

>  <s_epik_cmdline>  (326) 
J2VwaWtfcHl0aG9uJywgJy1waHQnLCAnMi4wJywgJy1waCcsICc3LjAnLCAnLXRuJywgJzgnLCAnLW1hJywgJzIwMCcsICctaW1hZScsICc8aW5maWxlLm1hZT4nLCAnLW9tYWUnLCAnPG91dGZpbGUubWFlPic=

>  <r_lp_tautomer_probability>  (326) 
1

>  <r_epik_Ionization_Penalty>  (326) 
2.49954e-05

>  <r_epik_Ionization_Penalty_Charging>  (326) 
2.4943e-05

>  <r_epik_Ionization_Penalty_Neutral>  (326) 
5.2411e-08

>  <r_epik_State_Penalty>  (326) 
-0

>  <r_epik_Charging_Adjusted_Penalty>  (326) 
2.4943e-05

>  <i_epik_Tot_Q>  (326) 
1

>  <i_epik_Tot_abs_Q>  (326) 
1

>  <s_epik_Chemistry_Notes>  (326) 
This compound has an imine and may undergo hydrolysis. This compound contains an acetal/aminal-like group ( X-CH(R)-Y where X, Y are N, S, or O) that may be acid/base labile, releasing an aldehyde.

>  <s_lp_Force_Field>  (326) 
OPLS3e

>  <r_lp_Energy>  (326) 
28.4204

>  <b_lp_Chiralities_Consistent>  (326) 
1

>  <s_lp_Variant>  (326) 
94:0-1

>  <s_i_glide_gridfile>  (326) 
pfpi4k_grid

>  <i_i_glide_lignum>  (326) 
23

>  <i_i_glide_rotatable_bonds>  (326) 
2

>  <r_i_docking_score>  (326) 
-4.26907

>  <r_i_glide_ligand_efficiency>  (326) 
-0.284605

>  <r_i_glide_ligand_efficiency_sa>  (326) 
-0.701896

>  <r_i_glide_ligand_efficiency_ln>  (326) 
-1.1513

>  <r_i_glide_gscore>  (326) 
-4.26907

>  <r_i_glide_lipo>  (326) 
-0.235482

>  <r_i_glide_hbond>  (326) 
0

>  <r_i_glide_metal>  (326) 
-0

>  <r_i_glide_rewards>  (326) 
-1.99359

>  <r_i_glide_evdw>  (326) 
-17.6224

>  <r_i_glide_ecoul>  (326) 
-9.72978

>  <r_i_glide_erotb>  (326) 
0.375714

>  <r_i_glide_esite>  (326) 
-0.0751262

>  <r_i_glide_emodel>  (326) 
-37.1213

>  <r_i_glide_energy>  (326) 
-27.3522

>  <r_i_glide_einternal>  (326) 
0.472462

>  <r_i_glide_intrahb_reward>  (326) 
-0

>  <i_i_glide_confnum>  (326) 
1

>  <i_i_glide_posenum>  (326) 
37

>  <r_i_glide_eff_state_penalty>  (326) 
0

>  <ligand_id>  (326) 
94

>  <original_smiles>  (326) 
N=c1ccn2c(n1)OC1CC2OC1CO

>  <smiles>  (326) 
[H]OC([H])([H])C1([H])OC2([H])n3c(nc(=[N+]([H])[H])c([H])c3[H])OC1([H])C2([H])[H]

$$$$
94:0:2
     RDKit          3D

 27 29  0  0  1  0  0  0  0  0999 V2000
    1.8673   -3.0502   -3.9199 N   0  0  0  0  0  0  0  0  0  0  0  0
    2.6735   -2.5356   -3.0613 C   0  0  0  0  0  0  0  0  0  0  0  0
    3.5319   -1.4148   -3.2915 C   0  0  0  0  0  0  0  0  0  0  0  0
    4.3582   -0.9168   -2.3464 C   0  0  0  0  0  0  0  0  0  0  0  0
    4.3806   -1.5045   -1.1003 N   0  0  0  0  0  0  0  0  0  0  0  0
    3.4811   -2.6245   -0.8796 C   0  0  0  0  0  0  0  0  0  0  0  0
    2.7061   -3.0920   -1.8112 N   0  0  0  0  0  0  0  0  0  0  0  0
    3.4895   -3.1643    0.3890 O   0  0  0  0  0  0  0  0  0  0  0  0
    4.2830   -2.5189    1.4025 C   0  0  1  0  0  0  0  0  0  0  0  0
    5.6566   -2.1190    0.8790 C   0  0  0  0  0  0  0  0  0  0  0  0
    5.1972   -0.9468    0.0247 C   0  0  2  0  0  0  0  0  0  0  0  0
    4.3218   -0.2294    0.8424 O   0  0  0  0  0  0  0  0  0  0  0  0
    3.7282   -1.1275    1.7911 C   0  0  1  0  0  0  0  0  0  0  0  0
    2.1954   -0.9818    1.8259 C   0  0  0  0  0  0  0  0  0  0  0  0
    1.7887   -0.1245    2.8738 O   0  0  0  0  0  0  0  0  0  0  0  0
    1.2571   -3.8352   -3.6630 H   0  0  0  0  0  0  0  0  0  0  0  0
    3.4753   -0.9484   -4.2613 H   0  0  0  0  0  0  0  0  0  0  0  0
    4.9793   -0.0593   -2.5646 H   0  0  0  0  0  0  0  0  0  0  0  0
    4.3500   -3.1834    2.2648 H   0  0  0  0  0  0  0  0  0  0  0  0
    6.3162   -1.7538    1.6709 H   0  0  0  0  0  0  0  0  0  0  0  0
    6.1678   -2.8918    0.3010 H   0  0  0  0  0  0  0  0  0  0  0  0
    5.9871   -0.3441   -0.4212 H   0  0  0  0  0  0  0  0  0  0  0  0
    4.1448   -0.8746    2.7677 H   0  0  0  0  0  0  0  0  0  0  0  0
    1.8374   -0.5825    0.8794 H   0  0  0  0  0  0  0  0  0  0  0  0
    1.7205   -1.9494    1.9835 H   0  0  0  0  0  0  0  0  0  0  0  0
    2.0189    0.7617    2.6349 H   0  0  0  0  0  0  0  0  0  0  0  0
    1.8039   -2.6691   -4.8647 H   0  0  0  0  0  0  0  0  0  0  0  0
  1  2  2  3
  1 16  1  0
  1 27  1  0
  2  7  1  0
  2  3  1  0
  3  4  2  0
  3 17  1  0
  4  5  1  0
  4 18  1  0
  5 11  1  0
  5  6  1  0
  6  7  2  0
  6  8  1  0
  8  9  1  0
  9 13  1  0
  9 10  1  0
  9 19  1  1
 10 11  1  0
 10 20  1  0
 10 21  1  0
 11 12  1  0
 11 22  1  6
 12 13  1  0
 13 14  1  0
 13 23  1  1
 14 15  1  0
 14 24  1  0
 14 25  1  0
 15 26  1  0
M  CHG  1   1   1
M  END
>  <i_m_ct_stereo_status>  (327) 
1

>  <s_m_source_file>  (327) 
/var/tmp/pbs.5076255.sched01/tmpay8aiv4m/132fzfu5vr2.sdf

>  <i_m_source_file_index>  (327) 
23

>  <i_lp_mmshare_version>  (327) 
48012

>  <i_f3d_flags>  (327) 
0

>  <s_epik_input>  (327) 
W2NIXTFbY0hdXGMoPU5cW0hdKW5jKG4xMilPW0NASF0zW0NIMl1bQ0BASF0yT1tDQEhdM1tDSDJdW09IXQ==

>  <s_epik_cmdline>  (327) 
J2VwaWtfcHl0aG9uJywgJy1waHQnLCAnMi4wJywgJy1waCcsICc3LjAnLCAnLXRuJywgJzgnLCAnLW1hJywgJzIwMCcsICctaW1hZScsICc8aW5maWxlLm1hZT4nLCAnLW9tYWUnLCAnPG91dGZpbGUubWFlPic=

>  <r_lp_tautomer_probability>  (327) 
1

>  <r_epik_Ionization_Penalty>  (327) 
2.49954e-05

>  <r_epik_Ionization_Penalty_Charging>  (327) 
2.4943e-05

>  <r_epik_Ionization_Penalty_Neutral>  (327) 
5.2411e-08

>  <r_epik_State_Penalty>  (327) 
-0

>  <r_epik_Charging_Adjusted_Penalty>  (327) 
2.4943e-05

>  <i_epik_Tot_Q>  (327) 
1

>  <i_epik_Tot_abs_Q>  (327) 
1

>  <s_epik_Chemistry_Notes>  (327) 
This compound has an imine and may undergo hydrolysis. This compound contains an acetal/aminal-like group ( X-CH(R)-Y where X, Y are N, S, or O) that may be acid/base labile, releasing an aldehyde.

>  <s_lp_Force_Field>  (327) 
OPLS3e

>  <r_lp_Energy>  (327) 
28.4204

>  <b_lp_Chiralities_Consistent>  (327) 
1

>  <s_lp_Variant>  (327) 
94:0-1

>  <s_i_glide_gridfile>  (327) 
pfpi4k_grid

>  <i_i_glide_lignum>  (327) 
23

>  <i_i_glide_rotatable_bonds>  (327) 
2

>  <r_i_docking_score>  (327) 
-4.11339

>  <r_i_glide_ligand_efficiency>  (327) 
-0.274226

>  <r_i_glide_ligand_efficiency_sa>  (327) 
-0.6763

>  <r_i_glide_ligand_efficiency_ln>  (327) 
-1.10931

>  <r_i_glide_gscore>  (327) 
-4.11339

>  <r_i_glide_lipo>  (327) 
-0.228414

>  <r_i_glide_hbond>  (327) 
0

>  <r_i_glide_metal>  (327) 
-0

>  <r_i_glide_rewards>  (327) 
-2.0111

>  <r_i_glide_evdw>  (327) 
-17.534

>  <r_i_glide_ecoul>  (327) 
-8.62842

>  <r_i_glide_erotb>  (327) 
0.375714

>  <r_i_glide_esite>  (327) 
-0.0786298

>  <r_i_glide_emodel>  (327) 
-35.3178

>  <r_i_glide_energy>  (327) 
-26.1625

>  <r_i_glide_einternal>  (327) 
0.937021

>  <r_i_glide_intrahb_reward>  (327) 
-0

>  <i_i_glide_confnum>  (327) 
6

>  <i_i_glide_posenum>  (327) 
32

>  <r_i_glide_eff_state_penalty>  (327) 
0

>  <ligand_id>  (327) 
94

>  <original_smiles>  (327) 
N=c1ccn2c(n1)OC1CC2OC1CO

>  <smiles>  (327) 
[H]OC([H])([H])C1([H])OC2([H])n3c(nc(=[N+]([H])[H])c([H])c3[H])OC1([H])C2([H])[H]

$$$$
95:0:0
     RDKit          3D

 15 17  0  0  1  0  0  0  0  0999 V2000
    3.5597   -7.6121    1.3093 C   0  0  0  0  0  0  0  0  0  0  0  0
    2.3531   -6.9464    1.4495 N   0  0  0  0  0  0  0  0  0  0  0  0
    1.7106   -7.9311    1.9811 C   0  0  0  0  0  0  0  0  0  0  0  0
    0.3411   -7.9026    2.3885 C   0  0  0  0  0  0  0  0  0  0  0  0
   -0.4409   -6.8817    2.2783 N   0  0  0  0  0  0  0  0  0  0  0  0
   -1.5917   -7.4639    2.8547 N   0  0  0  0  0  0  0  0  0  0  0  0
   -1.4325   -8.7265    3.2269 N   0  0  0  0  0  0  0  0  0  0  0  0
   -0.1367   -9.0061    2.9206 N   0  0  0  0  0  0  0  0  0  0  0  0
    0.4953  -10.2289    3.1565 C   0  0  0  0  0  0  0  0  0  0  0  0
    1.8752  -10.2592    2.7462 C   0  0  0  0  0  0  0  0  0  0  0  0
    2.3416   -9.0686    2.1820 N   0  0  0  0  0  0  0  0  0  0  0  0
    3.6065   -8.8928    1.7326 N   0  0  0  0  0  0  0  0  0  0  0  0
    4.4390   -7.1644    0.8791 H   0  0  0  0  0  0  0  0  0  0  0  0
   -0.0507  -11.0472    3.6127 H   0  0  0  0  0  0  0  0  0  0  0  0
    2.5330  -11.1141    2.8308 H   0  0  0  0  0  0  0  0  0  0  0  0
  1 12  2  0
  1  2  1  0
  1 13  1  0
  2  3  2  0
  3 11  1  0
  3  4  1  0
  4  8  1  0
  4  5  2  0
  5  6  1  0
  6  7  2  0
  7  8  1  0
  8  9  1  0
  9 10  2  0
  9 14  1  0
 10 11  1  0
 10 15  1  0
 11 12  1  0
M  END
>  <i_m_ct_stereo_status>  (328) 
1

>  <s_m_source_file>  (328) 
/var/tmp/pbs.5076255.sched01/tmpay8aiv4m/132fzfu5vr2.sdf

>  <i_m_source_file_index>  (328) 
24

>  <i_lp_mmshare_version>  (328) 
48012

>  <i_f3d_flags>  (328) 
0

>  <s_epik_input>  (328) 
bjFbY0hdbm4yW2NIXVtjSF1uKGMzYzEyKW5ubjM=

>  <s_epik_cmdline>  (328) 
J2VwaWtfcHl0aG9uJywgJy1waHQnLCAnMi4wJywgJy1waCcsICc3LjAnLCAnLXRuJywgJzgnLCAnLW1hJywgJzIwMCcsICctaW1hZScsICc8aW5maWxlLm1hZT4nLCAnLW9tYWUnLCAnPG91dGZpbGUubWFlPic=

>  <r_lp_tautomer_probability>  (328) 
1

>  <r_epik_Ionization_Penalty>  (328) 
2.06902e-12

>  <r_epik_Ionization_Penalty_Charging>  (328) 
0

>  <r_epik_Ionization_Penalty_Neutral>  (328) 
2.06902e-12

>  <r_epik_State_Penalty>  (328) 
-0

>  <r_epik_Charging_Adjusted_Penalty>  (328) 
0

>  <i_epik_Tot_Q>  (328) 
0

>  <i_epik_Tot_abs_Q>  (328) 
0

>  <s_lp_Force_Field>  (328) 
OPLS3e

>  <r_lp_Energy>  (328) 
16.7629

>  <b_lp_Chiralities_Consistent>  (328) 
1

>  <s_lp_Variant>  (328) 
95:0-1

>  <s_i_glide_gridfile>  (328) 
pfpi4k_grid

>  <i_i_glide_lignum>  (328) 
24

>  <i_i_glide_rotatable_bonds>  (328) 
0

>  <r_i_docking_score>  (328) 
-4.35379

>  <r_i_glide_ligand_efficiency>  (328) 
-0.362816

>  <r_i_glide_ligand_efficiency_sa>  (328) 
-0.830641

>  <r_i_glide_ligand_efficiency_ln>  (328) 
-1.24933

>  <r_i_glide_gscore>  (328) 
-4.35379

>  <r_i_glide_lipo>  (328) 
-0.108851

>  <r_i_glide_hbond>  (328) 
0

>  <r_i_glide_metal>  (328) 
-0

>  <r_i_glide_rewards>  (328) 
-2.33018

>  <r_i_glide_evdw>  (328) 
-18.9618

>  <r_i_glide_ecoul>  (328) 
-4.13679

>  <r_i_glide_erotb>  (328) 
0

>  <r_i_glide_esite>  (328) 
-0.346152

>  <r_i_glide_emodel>  (328) 
-30.3044

>  <r_i_glide_energy>  (328) 
-23.0986

>  <r_i_glide_einternal>  (328) 
0

>  <r_i_glide_intrahb_reward>  (328) 
-0

>  <i_i_glide_confnum>  (328) 
1

>  <i_i_glide_posenum>  (328) 
16

>  <r_i_glide_eff_state_penalty>  (328) 
0

>  <ligand_id>  (328) 
95

>  <original_smiles>  (328) 
c1nc2c3nnnn3ccn2n1

>  <smiles>  (328) 
[H]c1nc2c3nnnn3c([H])c([H])n2n1

$$$$
95:0:1
     RDKit          3D

 15 17  0  0  1  0  0  0  0  0999 V2000
   -2.5503    2.6604    6.7148 C   0  0  0  0  0  0  0  0  0  0  0  0
   -2.1581    1.3360    6.8544 N   0  0  0  0  0  0  0  0  0  0  0  0
   -1.5750    1.2494    5.6996 C   0  0  0  0  0  0  0  0  0  0  0  0
   -0.9281    0.1012    5.2039 C   0  0  0  0  0  0  0  0  0  0  0  0
   -0.8405   -1.0224    5.8330 N   0  0  0  0  0  0  0  0  0  0  0  0
   -0.0975   -1.7178    4.8587 N   0  0  0  0  0  0  0  0  0  0  0  0
    0.2066   -0.9984    3.7817 N   0  0  0  0  0  0  0  0  0  0  0  0
   -0.3788    0.1983    4.0109 N   0  0  0  0  0  0  0  0  0  0  0  0
   -0.3591    1.2765    3.1206 C   0  0  0  0  0  0  0  0  0  0  0  0
   -1.0240    2.4490    3.6192 C   0  0  0  0  0  0  0  0  0  0  0  0
   -1.5737    2.2999    4.9020 N   0  0  0  0  0  0  0  0  0  0  0  0
   -2.2316    3.2824    5.5546 N   0  0  0  0  0  0  0  0  0  0  0  0
   -3.1097    3.2078    7.4680 H   0  0  0  0  0  0  0  0  0  0  0  0
    0.1335    1.1864    2.1513 H   0  0  0  0  0  0  0  0  0  0  0  0
   -1.1096    3.3936    3.0900 H   0  0  0  0  0  0  0  0  0  0  0  0
  1 12  2  0
  1  2  1  0
  1 13  1  0
  2  3  2  0
  3 11  1  0
  3  4  1  0
  4  8  1  0
  4  5  2  0
  5  6  1  0
  6  7  2  0
  7  8  1  0
  8  9  1  0
  9 10  2  0
  9 14  1  0
 10 11  1  0
 10 15  1  0
 11 12  1  0
M  END
>  <i_m_ct_stereo_status>  (329) 
1

>  <s_m_source_file>  (329) 
/var/tmp/pbs.5076255.sched01/tmpay8aiv4m/132fzfu5vr2.sdf

>  <i_m_source_file_index>  (329) 
24

>  <i_lp_mmshare_version>  (329) 
48012

>  <i_f3d_flags>  (329) 
0

>  <s_epik_input>  (329) 
bjFbY0hdbm4yW2NIXVtjSF1uKGMzYzEyKW5ubjM=

>  <s_epik_cmdline>  (329) 
J2VwaWtfcHl0aG9uJywgJy1waHQnLCAnMi4wJywgJy1waCcsICc3LjAnLCAnLXRuJywgJzgnLCAnLW1hJywgJzIwMCcsICctaW1hZScsICc8aW5maWxlLm1hZT4nLCAnLW9tYWUnLCAnPG91dGZpbGUubWFlPic=

>  <r_lp_tautomer_probability>  (329) 
1

>  <r_epik_Ionization_Penalty>  (329) 
2.06902e-12

>  <r_epik_Ionization_Penalty_Charging>  (329) 
0

>  <r_epik_Ionization_Penalty_Neutral>  (329) 
2.06902e-12

>  <r_epik_State_Penalty>  (329) 
-0

>  <r_epik_Charging_Adjusted_Penalty>  (329) 
0

>  <i_epik_Tot_Q>  (329) 
0

>  <i_epik_Tot_abs_Q>  (329) 
0

>  <s_lp_Force_Field>  (329) 
OPLS3e

>  <r_lp_Energy>  (329) 
16.7629

>  <b_lp_Chiralities_Consistent>  (329) 
1

>  <s_lp_Variant>  (329) 
95:0-1

>  <s_i_glide_gridfile>  (329) 
pfpi4k_grid

>  <i_i_glide_lignum>  (329) 
24

>  <i_i_glide_rotatable_bonds>  (329) 
0

>  <r_i_docking_score>  (329) 
-4.06771

>  <r_i_glide_ligand_efficiency>  (329) 
-0.338976

>  <r_i_glide_ligand_efficiency_sa>  (329) 
-0.77606

>  <r_i_glide_ligand_efficiency_ln>  (329) 
-1.16724

>  <r_i_glide_gscore>  (329) 
-4.06771

>  <r_i_glide_lipo>  (329) 
0

>  <r_i_glide_hbond>  (329) 
-0.08701

>  <r_i_glide_metal>  (329) 
-0

>  <r_i_glide_rewards>  (329) 
-2.46911

>  <r_i_glide_evdw>  (329) 
-15.533

>  <r_i_glide_ecoul>  (329) 
-3.82424

>  <r_i_glide_erotb>  (329) 
0

>  <r_i_glide_esite>  (329) 
-0.161299

>  <r_i_glide_emodel>  (329) 
-26.0854

>  <r_i_glide_energy>  (329) 
-19.3572

>  <r_i_glide_einternal>  (329) 
0

>  <r_i_glide_intrahb_reward>  (329) 
-0

>  <i_i_glide_confnum>  (329) 
1

>  <i_i_glide_posenum>  (329) 
13

>  <r_i_glide_eff_state_penalty>  (329) 
0

>  <ligand_id>  (329) 
95

>  <original_smiles>  (329) 
c1nc2c3nnnn3ccn2n1

>  <smiles>  (329) 
[H]c1nc2c3nnnn3c([H])c([H])n2n1

$$$$
95:0:2
     RDKit          3D

 15 17  0  0  1  0  0  0  0  0999 V2000
   -0.7096   -1.4354    5.6387 C   0  0  0  0  0  0  0  0  0  0  0  0
   -1.3921   -0.2730    5.9600 N   0  0  0  0  0  0  0  0  0  0  0  0
   -1.0430    0.3900    4.9066 C   0  0  0  0  0  0  0  0  0  0  0  0
   -1.4192    1.7368    4.6024 C   0  0  0  0  0  0  0  0  0  0  0  0
   -2.1551    2.4876    5.3501 N   0  0  0  0  0  0  0  0  0  0  0  0
   -2.1558    3.6340    4.5244 N   0  0  0  0  0  0  0  0  0  0  0  0
   -1.4588    3.4980    3.4054 N   0  0  0  0  0  0  0  0  0  0  0  0
   -0.9694    2.2298    3.4665 N   0  0  0  0  0  0  0  0  0  0  0  0
   -0.1596    1.6366    2.4943 C   0  0  0  0  0  0  0  0  0  0  0  0
    0.2316    0.2891    2.8051 C   0  0  0  0  0  0  0  0  0  0  0  0
   -0.2730   -0.2004    4.0136 N   0  0  0  0  0  0  0  0  0  0  0  0
   -0.0271   -1.4496    4.4768 N   0  0  0  0  0  0  0  0  0  0  0  0
   -0.7069   -2.3152    6.2592 H   0  0  0  0  0  0  0  0  0  0  0  0
    0.1249    2.1812    1.6028 H   0  0  0  0  0  0  0  0  0  0  0  0
    0.8492   -0.3357    2.1752 H   0  0  0  0  0  0  0  0  0  0  0  0
  1 12  2  0
  1  2  1  0
  1 13  1  0
  2  3  2  0
  3 11  1  0
  3  4  1  0
  4  8  1  0
  4  5  2  0
  5  6  1  0
  6  7  2  0
  7  8  1  0
  8  9  1  0
  9 10  2  0
  9 14  1  0
 10 11  1  0
 10 15  1  0
 11 12  1  0
M  END
>  <i_m_ct_stereo_status>  (330) 
1

>  <s_m_source_file>  (330) 
/var/tmp/pbs.5076255.sched01/tmpay8aiv4m/132fzfu5vr2.sdf

>  <i_m_source_file_index>  (330) 
24

>  <i_lp_mmshare_version>  (330) 
48012

>  <i_f3d_flags>  (330) 
0

>  <s_epik_input>  (330) 
bjFbY0hdbm4yW2NIXVtjSF1uKGMzYzEyKW5ubjM=

>  <s_epik_cmdline>  (330) 
J2VwaWtfcHl0aG9uJywgJy1waHQnLCAnMi4wJywgJy1waCcsICc3LjAnLCAnLXRuJywgJzgnLCAnLW1hJywgJzIwMCcsICctaW1hZScsICc8aW5maWxlLm1hZT4nLCAnLW9tYWUnLCAnPG91dGZpbGUubWFlPic=

>  <r_lp_tautomer_probability>  (330) 
1

>  <r_epik_Ionization_Penalty>  (330) 
2.06902e-12

>  <r_epik_Ionization_Penalty_Charging>  (330) 
0

>  <r_epik_Ionization_Penalty_Neutral>  (330) 
2.06902e-12

>  <r_epik_State_Penalty>  (330) 
-0

>  <r_epik_Charging_Adjusted_Penalty>  (330) 
0

>  <i_epik_Tot_Q>  (330) 
0

>  <i_epik_Tot_abs_Q>  (330) 
0

>  <s_lp_Force_Field>  (330) 
OPLS3e

>  <r_lp_Energy>  (330) 
16.7629

>  <b_lp_Chiralities_Consistent>  (330) 
1

>  <s_lp_Variant>  (330) 
95:0-1

>  <s_i_glide_gridfile>  (330) 
pfpi4k_grid

>  <i_i_glide_lignum>  (330) 
24

>  <i_i_glide_rotatable_bonds>  (330) 
0

>  <r_i_docking_score>  (330) 
-3.987

>  <r_i_glide_ligand_efficiency>  (330) 
-0.33225

>  <r_i_glide_ligand_efficiency_sa>  (330) 
-0.760662

>  <r_i_glide_ligand_efficiency_ln>  (330) 
-1.14408

>  <r_i_glide_gscore>  (330) 
-3.987

>  <r_i_glide_lipo>  (330) 
0

>  <r_i_glide_hbond>  (330) 
-0.0664062

>  <r_i_glide_metal>  (330) 
-0

>  <r_i_glide_rewards>  (330) 
-2.25

>  <r_i_glide_evdw>  (330) 
-16.0534

>  <r_i_glide_ecoul>  (330) 
-4.00633

>  <r_i_glide_erotb>  (330) 
0

>  <r_i_glide_esite>  (330) 
-0.26697

>  <r_i_glide_emodel>  (330) 
-26.6579

>  <r_i_glide_energy>  (330) 
-20.0597

>  <r_i_glide_einternal>  (330) 
0

>  <r_i_glide_intrahb_reward>  (330) 
-0

>  <i_i_glide_confnum>  (330) 
2

>  <i_i_glide_posenum>  (330) 
30

>  <r_i_glide_eff_state_penalty>  (330) 
0

>  <ligand_id>  (330) 
95

>  <original_smiles>  (330) 
c1nc2c3nnnn3ccn2n1

>  <smiles>  (330) 
[H]c1nc2c3nnnn3c([H])c([H])n2n1

$$$$
97:0:0
     RDKit          3D

 32 34  0  0  1  0  0  0  0  0999 V2000
    1.5852   -8.3676    1.4189 C   0  0  0  0  0  0  0  0  0  0  0  0
    1.9359   -7.3463    2.5332 C   0  0  2  0  0  0  0  0  0  0  0  0
    0.6995   -6.5327    2.9626 C   0  0  0  0  0  0  0  0  0  0  0  0
   -0.1893   -6.2720    2.1252 O   0  0  0  0  0  0  0  0  0  0  0  0
    0.6885   -6.0769    4.1276 O   0  0  0  0  0  0  0  0  0  0  0  0
    3.0411   -6.4607    2.0800 N   0  0  0  0  0  0  0  0  0  0  0  0
    4.3100   -6.5787    2.7268 C   0  0  0  0  0  0  0  0  0  0  0  0
    5.3794   -5.8920    2.4584 N   0  0  0  0  0  0  0  0  0  0  0  0
    5.1859   -4.9762    1.4502 C   0  0  0  0  0  0  0  0  0  0  0  0
    6.4576   -3.9035    0.9154 S   0  0  0  0  0  0  0  0  0  0  0  0
    5.3929   -3.1679   -0.2754 C   0  0  0  0  0  0  0  0  0  0  0  0
    4.1496   -3.7333   -0.2512 C   0  0  0  0  0  0  0  0  0  0  0  0
    4.0559   -4.7631    0.7255 C   0  0  0  0  0  0  0  0  0  0  0  0
    2.8875   -5.6187    1.0109 C   0  0  0  0  0  0  0  0  0  0  0  0
    1.8749   -5.5559    0.3149 O   0  0  0  0  0  0  0  0  0  0  0  0
    3.0373   -3.3296   -1.1724 C   0  0  0  0  0  0  0  0  0  0  0  0
    3.2831   -2.0219   -1.9138 C   0  0  0  0  0  0  0  0  0  0  0  0
    4.7445   -1.8813   -2.3720 C   0  0  0  0  0  0  0  0  0  0  0  0
    5.7698   -2.0549   -1.2193 C   0  0  0  0  0  0  0  0  0  0  0  0
    0.8240   -9.0617    1.7569 H   0  0  0  0  0  0  0  0  0  0  0  0
    2.4432   -8.9634    1.0976 H   0  0  0  0  0  0  0  0  0  0  0  0
    1.1572   -7.8951    0.5341 H   0  0  0  0  0  0  0  0  0  0  0  0
    2.2617   -7.9311    3.4113 H   0  0  0  0  0  0  0  0  0  0  0  0
    4.3280   -7.3506    3.4981 H   0  0  0  0  0  0  0  0  0  0  0  0
    2.8745   -4.1322   -1.8851 H   0  0  0  0  0  0  0  0  0  0  0  0
    2.1049   -3.2061   -0.6289 H   0  0  0  0  0  0  0  0  0  0  0  0
    2.5548   -1.9433   -2.7302 H   0  0  0  0  0  0  0  0  0  0  0  0
    3.0574   -1.2217   -1.2156 H   0  0  0  0  0  0  0  0  0  0  0  0
    4.9057   -2.6635   -3.1093 H   0  0  0  0  0  0  0  0  0  0  0  0
    4.8741   -0.9265   -2.8820 H   0  0  0  0  0  0  0  0  0  0  0  0
    5.8044   -1.1252   -0.6545 H   0  0  0  0  0  0  0  0  0  0  0  0
    6.7571   -2.2297   -1.6420 H   0  0  0  0  0  0  0  0  0  0  0  0
  1  2  1  0
  1 20  1  0
  1 21  1  0
  1 22  1  0
  2  3  1  0
  2  6  1  0
  2 23  1  1
  3  4  2  0
  3  5  1  0
  6 14  1  0
  6  7  1  0
  7  8  2  0
  7 24  1  0
  8  9  1  0
  9 13  2  0
  9 10  1  0
 10 11  1  0
 11 19  1  0
 11 12  2  0
 12 13  1  0
 12 16  1  0
 13 14  1  0
 14 15  2  0
 16 17  1  0
 16 25  1  0
 16 26  1  0
 17 18  1  0
 17 27  1  0
 17 28  1  0
 18 19  1  0
 18 29  1  0
 18 30  1  0
 19 31  1  0
 19 32  1  0
M  CHG  1   5  -1
M  END
>  <i_m_ct_stereo_status>  (331) 
1

>  <s_m_source_file>  (331) 
/var/tmp/pbs.5076255.sched01/tmpay8aiv4m/132fzfu5vr2.sdf

>  <i_m_source_file_index>  (331) 
26

>  <i_lp_mmshare_version>  (331) 
48012

>  <i_f3d_flags>  (331) 
0

>  <s_epik_input>  (331) 
Tz1DKFtPSF0pW0NAQEhdKFtDSDNdKW4oW2NIXW4xKWMoPU8pYyhjMTIpYzNjKHMyKVtDSDJdW0NIMl1bQ0gyXVtDSDJdMw==

>  <s_epik_cmdline>  (331) 
J2VwaWtfcHl0aG9uJywgJy1waHQnLCAnMi4wJywgJy1waCcsICc3LjAnLCAnLXRuJywgJzgnLCAnLW1hJywgJzIwMCcsICctaW1hZScsICc8aW5maWxlLm1hZT4nLCAnLW9tYWUnLCAnPG91dGZpbGUubWFlPic=

>  <r_epik_Ionization_Penalty>  (331) 
0.00101203

>  <r_epik_Ionization_Penalty_Charging>  (331) 
0.000812611

>  <r_epik_Ionization_Penalty_Neutral>  (331) 
0.000199417

>  <r_epik_State_Penalty>  (331) 
0.000522359

>  <r_epik_Charging_Adjusted_Penalty>  (331) 
0.00133497

>  <i_epik_Tot_Q>  (331) 
-1

>  <i_epik_Tot_abs_Q>  (331) 
1

>  <s_lp_Force_Field>  (331) 
OPLS3e

>  <r_lp_Energy>  (331) 
43.7412

>  <b_lp_Chiralities_Consistent>  (331) 
1

>  <s_lp_Variant>  (331) 
97:0-1

>  <s_i_glide_gridfile>  (331) 
pfpi4k_grid

>  <i_i_glide_lignum>  (331) 
26

>  <i_i_glide_rotatable_bonds>  (331) 
2

>  <r_i_docking_score>  (331) 
-3.91093

>  <r_i_glide_ligand_efficiency>  (331) 
-0.205839

>  <r_i_glide_ligand_efficiency_sa>  (331) 
-0.54926

>  <r_i_glide_ligand_efficiency_ln>  (331) 
-0.991506

>  <r_i_glide_gscore>  (331) 
-3.91093

>  <r_i_glide_lipo>  (331) 
-0.299313

>  <r_i_glide_hbond>  (331) 
-0.373619

>  <r_i_glide_metal>  (331) 
-0

>  <r_i_glide_rewards>  (331) 
-1.5343

>  <r_i_glide_evdw>  (331) 
-18.5947

>  <r_i_glide_ecoul>  (331) 
-4.81615

>  <r_i_glide_erotb>  (331) 
0

>  <r_i_glide_esite>  (331) 
-0.0515464

>  <r_i_glide_emodel>  (331) 
-30.6768

>  <r_i_glide_energy>  (331) 
-23.4109

>  <r_i_glide_einternal>  (331) 
1.48916

>  <r_i_glide_intrahb_reward>  (331) 
-0

>  <i_i_glide_confnum>  (331) 
4

>  <i_i_glide_posenum>  (331) 
32

>  <r_i_glide_eff_state_penalty>  (331) 
0

>  <ligand_id>  (331) 
97

>  <original_smiles>  (331) 
CC(C(=O)O)n1cnc2sc3c(c2c1=O)CCCC3

>  <smiles>  (331) 
[H]c1nc2sc3c(c2c(=O)n1C([H])(C(=O)[O-])C([H])([H])[H])C([H])([H])C([H])([H])C([H])([H])C3([H])[H]

$$$$
97:0:1
     RDKit          3D

 32 34  0  0  1  0  0  0  0  0999 V2000
    4.0730   -2.8641   -2.1196 C   0  0  0  0  0  0  0  0  0  0  0  0
    4.2959   -2.7463   -0.6000 C   0  0  2  0  0  0  0  0  0  0  0  0
    5.2163   -1.6103   -0.1672 C   0  0  0  0  0  0  0  0  0  0  0  0
    4.9204   -0.9838    0.8740 O   0  0  0  0  0  0  0  0  0  0  0  0
    6.2167   -1.4148   -0.8845 O   0  0  0  0  0  0  0  0  0  0  0  0
    4.5891   -4.0676    0.0155 N   0  0  0  0  0  0  0  0  0  0  0  0
    5.9507   -4.5224    0.1148 C   0  0  0  0  0  0  0  0  0  0  0  0
    6.3458   -5.6641    0.6356 N   0  0  0  0  0  0  0  0  0  0  0  0
    5.3045   -6.4299    1.0587 C   0  0  0  0  0  0  0  0  0  0  0  0
    5.5797   -8.0120    1.7450 S   0  0  0  0  0  0  0  0  0  0  0  0
    3.8610   -8.2469    2.0079 C   0  0  0  0  0  0  0  0  0  0  0  0
    3.1385   -7.1662    1.5600 C   0  0  0  0  0  0  0  0  0  0  0  0
    3.9635   -6.1484    1.0201 C   0  0  0  0  0  0  0  0  0  0  0  0
    3.5665   -4.8457    0.4212 C   0  0  0  0  0  0  0  0  0  0  0  0
    2.3754   -4.5341    0.3152 O   0  0  0  0  0  0  0  0  0  0  0  0
    1.6425   -7.1094    1.6161 C   0  0  0  0  0  0  0  0  0  0  0  0
    1.0371   -8.1630    2.5382 C   0  0  0  0  0  0  0  0  0  0  0  0
    1.7229   -9.5287    2.3669 C   0  0  0  0  0  0  0  0  0  0  0  0
    3.2423   -9.4681    2.6286 C   0  0  0  0  0  0  0  0  0  0  0  0
    3.6444   -1.9415   -2.5109 H   0  0  0  0  0  0  0  0  0  0  0  0
    3.3865   -3.6733   -2.3840 H   0  0  0  0  0  0  0  0  0  0  0  0
    5.0110   -3.0437   -2.6469 H   0  0  0  0  0  0  0  0  0  0  0  0
    3.3383   -2.4140   -0.2165 H   0  0  0  0  0  0  0  0  0  0  0  0
    6.6921   -3.8388   -0.2990 H   0  0  0  0  0  0  0  0  0  0  0  0
    1.3158   -6.1378    1.9772 H   0  0  0  0  0  0  0  0  0  0  0  0
    1.2531   -7.2238    0.6040 H   0  0  0  0  0  0  0  0  0  0  0  0
    1.1602   -7.8304    3.5685 H   0  0  0  0  0  0  0  0  0  0  0  0
   -0.0359   -8.2197    2.3541 H   0  0  0  0  0  0  0  0  0  0  0  0
    1.2417  -10.2651    3.0055 H   0  0  0  0  0  0  0  0  0  0  0  0
    1.5578   -9.8547    1.3416 H   0  0  0  0  0  0  0  0  0  0  0  0
    3.7148  -10.3751    2.2584 H   0  0  0  0  0  0  0  0  0  0  0  0
    3.4087   -9.4362    3.7017 H   0  0  0  0  0  0  0  0  0  0  0  0
  1  2  1  0
  1 20  1  0
  1 21  1  0
  1 22  1  0
  2  3  1  0
  2  6  1  0
  2 23  1  1
  3  4  2  0
  3  5  1  0
  6 14  1  0
  6  7  1  0
  7  8  2  0
  7 24  1  0
  8  9  1  0
  9 13  2  0
  9 10  1  0
 10 11  1  0
 11 19  1  0
 11 12  2  0
 12 13  1  0
 12 16  1  0
 13 14  1  0
 14 15  2  0
 16 17  1  0
 16 25  1  0
 16 26  1  0
 17 18  1  0
 17 27  1  0
 17 28  1  0
 18 19  1  0
 18 29  1  0
 18 30  1  0
 19 31  1  0
 19 32  1  0
M  CHG  1   5  -1
M  END
>  <i_m_ct_stereo_status>  (332) 
1

>  <s_m_source_file>  (332) 
/var/tmp/pbs.5076255.sched01/tmpay8aiv4m/132fzfu5vr2.sdf

>  <i_m_source_file_index>  (332) 
26

>  <i_lp_mmshare_version>  (332) 
48012

>  <i_f3d_flags>  (332) 
0

>  <s_epik_input>  (332) 
Tz1DKFtPSF0pW0NAQEhdKFtDSDNdKW4oW2NIXW4xKWMoPU8pYyhjMTIpYzNjKHMyKVtDSDJdW0NIMl1bQ0gyXVtDSDJdMw==

>  <s_epik_cmdline>  (332) 
J2VwaWtfcHl0aG9uJywgJy1waHQnLCAnMi4wJywgJy1waCcsICc3LjAnLCAnLXRuJywgJzgnLCAnLW1hJywgJzIwMCcsICctaW1hZScsICc8aW5maWxlLm1hZT4nLCAnLW9tYWUnLCAnPG91dGZpbGUubWFlPic=

>  <r_epik_Ionization_Penalty>  (332) 
0.00101203

>  <r_epik_Ionization_Penalty_Charging>  (332) 
0.000812611

>  <r_epik_Ionization_Penalty_Neutral>  (332) 
0.000199417

>  <r_epik_State_Penalty>  (332) 
0.000522359

>  <r_epik_Charging_Adjusted_Penalty>  (332) 
0.00133497

>  <i_epik_Tot_Q>  (332) 
-1

>  <i_epik_Tot_abs_Q>  (332) 
1

>  <s_lp_Force_Field>  (332) 
OPLS3e

>  <r_lp_Energy>  (332) 
43.7412

>  <b_lp_Chiralities_Consistent>  (332) 
1

>  <s_lp_Variant>  (332) 
97:0-1

>  <s_i_glide_gridfile>  (332) 
pfpi4k_grid

>  <i_i_glide_lignum>  (332) 
26

>  <i_i_glide_rotatable_bonds>  (332) 
2

>  <r_i_docking_score>  (332) 
-3.42698

>  <r_i_glide_ligand_efficiency>  (332) 
-0.180367

>  <r_i_glide_ligand_efficiency_sa>  (332) 
-0.481292

>  <r_i_glide_ligand_efficiency_ln>  (332) 
-0.868812

>  <r_i_glide_gscore>  (332) 
-3.42698

>  <r_i_glide_lipo>  (332) 
-0.381239

>  <r_i_glide_hbond>  (332) 
-0.1406

>  <r_i_glide_metal>  (332) 
-0

>  <r_i_glide_rewards>  (332) 
-1.65228

>  <r_i_glide_evdw>  (332) 
-19.7797

>  <r_i_glide_ecoul>  (332) 
-1.70344

>  <r_i_glide_erotb>  (332) 
0

>  <r_i_glide_esite>  (332) 
-0.00836324

>  <r_i_glide_emodel>  (332) 
-28.3297

>  <r_i_glide_energy>  (332) 
-21.4831

>  <r_i_glide_einternal>  (332) 
1.26719

>  <r_i_glide_intrahb_reward>  (332) 
-0

>  <i_i_glide_confnum>  (332) 
3

>  <i_i_glide_posenum>  (332) 
36

>  <r_i_glide_eff_state_penalty>  (332) 
0

>  <ligand_id>  (332) 
97

>  <original_smiles>  (332) 
CC(C(=O)O)n1cnc2sc3c(c2c1=O)CCCC3

>  <smiles>  (332) 
[H]c1nc2sc3c(c2c(=O)n1C([H])(C(=O)[O-])C([H])([H])[H])C([H])([H])C([H])([H])C([H])([H])C3([H])[H]

$$$$
97:0:2
     RDKit          3D

 32 34  0  0  1  0  0  0  0  0999 V2000
    1.5458   -8.8438    1.9558 C   0  0  0  0  0  0  0  0  0  0  0  0
    1.9224   -7.5183    2.6178 C   0  0  2  0  0  0  0  0  0  0  0  0
    0.9352   -6.3807    2.4108 C   0  0  0  0  0  0  0  0  0  0  0  0
    0.4000   -6.2689    1.2875 O   0  0  0  0  0  0  0  0  0  0  0  0
    0.6959   -5.6471    3.3975 O   0  0  0  0  0  0  0  0  0  0  0  0
    3.3478   -7.1786    2.3721 N   0  0  0  0  0  0  0  0  0  0  0  0
    3.7585   -6.6303    1.1113 C   0  0  0  0  0  0  0  0  0  0  0  0
    4.9666   -6.2930    0.7630 N   0  0  0  0  0  0  0  0  0  0  0  0
    5.8761   -6.5629    1.7569 C   0  0  0  0  0  0  0  0  0  0  0  0
    7.5457   -6.1811    1.5150 S   0  0  0  0  0  0  0  0  0  0  0  0
    7.9612   -6.7623    3.1202 C   0  0  0  0  0  0  0  0  0  0  0  0
    6.8436   -7.2173    3.7842 C   0  0  0  0  0  0  0  0  0  0  0  0
    5.6620   -7.1015    2.9853 C   0  0  0  0  0  0  0  0  0  0  0  0
    4.2616   -7.4577    3.3317 C   0  0  0  0  0  0  0  0  0  0  0  0
    3.9794   -7.9347    4.4245 O   0  0  0  0  0  0  0  0  0  0  0  0
    6.8794   -7.7414    5.1838 C   0  0  0  0  0  0  0  0  0  0  0  0
    8.2792   -8.0780    5.6884 C   0  0  0  0  0  0  0  0  0  0  0  0
    9.3207   -7.0343    5.2493 C   0  0  0  0  0  0  0  0  0  0  0  0
    9.3361   -6.7874    3.7223 C   0  0  0  0  0  0  0  0  0  0  0  0
    0.5641   -9.1769    2.2902 H   0  0  0  0  0  0  0  0  0  0  0  0
    2.2491   -9.6637    2.1494 H   0  0  0  0  0  0  0  0  0  0  0  0
    1.4977   -8.6919    0.8819 H   0  0  0  0  0  0  0  0  0  0  0  0
    1.7812   -7.7421    3.6618 H   0  0  0  0  0  0  0  0  0  0  0  0
    2.9272   -6.5125    0.4215 H   0  0  0  0  0  0  0  0  0  0  0  0
    6.4036   -7.0043    5.8325 H   0  0  0  0  0  0  0  0  0  0  0  0
    6.3020   -8.6614    5.2577 H   0  0  0  0  0  0  0  0  0  0  0  0
    8.2349   -8.2270    6.7736 H   0  0  0  0  0  0  0  0  0  0  0  0
    8.5558   -9.0312    5.2458 H   0  0  0  0  0  0  0  0  0  0  0  0
    9.0410   -6.1113    5.7452 H   0  0  0  0  0  0  0  0  0  0  0  0
   10.3083   -7.3089    5.6215 H   0  0  0  0  0  0  0  0  0  0  0  0
    9.8927   -7.6091    3.2779 H   0  0  0  0  0  0  0  0  0  0  0  0
    9.8812   -5.8731    3.4979 H   0  0  0  0  0  0  0  0  0  0  0  0
  1  2  1  0
  1 20  1  0
  1 21  1  0
  1 22  1  0
  2  3  1  0
  2  6  1  0
  2 23  1  1
  3  4  2  0
  3  5  1  0
  6 14  1  0
  6  7  1  0
  7  8  2  0
  7 24  1  0
  8  9  1  0
  9 13  2  0
  9 10  1  0
 10 11  1  0
 11 19  1  0
 11 12  2  0
 12 13  1  0
 12 16  1  0
 13 14  1  0
 14 15  2  0
 16 17  1  0
 16 25  1  0
 16 26  1  0
 17 18  1  0
 17 27  1  0
 17 28  1  0
 18 19  1  0
 18 29  1  0
 18 30  1  0
 19 31  1  0
 19 32  1  0
M  CHG  1   5  -1
M  END
>  <i_m_ct_stereo_status>  (333) 
1

>  <s_m_source_file>  (333) 
/var/tmp/pbs.5076255.sched01/tmpay8aiv4m/132fzfu5vr2.sdf

>  <i_m_source_file_index>  (333) 
26

>  <i_lp_mmshare_version>  (333) 
48012

>  <i_f3d_flags>  (333) 
0

>  <s_epik_input>  (333) 
Tz1DKFtPSF0pW0NAQEhdKFtDSDNdKW4oW2NIXW4xKWMoPU8pYyhjMTIpYzNjKHMyKVtDSDJdW0NIMl1bQ0gyXVtDSDJdMw==

>  <s_epik_cmdline>  (333) 
J2VwaWtfcHl0aG9uJywgJy1waHQnLCAnMi4wJywgJy1waCcsICc3LjAnLCAnLXRuJywgJzgnLCAnLW1hJywgJzIwMCcsICctaW1hZScsICc8aW5maWxlLm1hZT4nLCAnLW9tYWUnLCAnPG91dGZpbGUubWFlPic=

>  <r_epik_Ionization_Penalty>  (333) 
0.00101203

>  <r_epik_Ionization_Penalty_Charging>  (333) 
0.000812611

>  <r_epik_Ionization_Penalty_Neutral>  (333) 
0.000199417

>  <r_epik_State_Penalty>  (333) 
0.000522359

>  <r_epik_Charging_Adjusted_Penalty>  (333) 
0.00133497

>  <i_epik_Tot_Q>  (333) 
-1

>  <i_epik_Tot_abs_Q>  (333) 
1

>  <s_lp_Force_Field>  (333) 
OPLS3e

>  <r_lp_Energy>  (333) 
43.7412

>  <b_lp_Chiralities_Consistent>  (333) 
1

>  <s_lp_Variant>  (333) 
97:0-1

>  <s_i_glide_gridfile>  (333) 
pfpi4k_grid

>  <i_i_glide_lignum>  (333) 
26

>  <i_i_glide_rotatable_bonds>  (333) 
2

>  <r_i_docking_score>  (333) 
-3.13411

>  <r_i_glide_ligand_efficiency>  (333) 
-0.164953

>  <r_i_glide_ligand_efficiency_sa>  (333) 
-0.440162

>  <r_i_glide_ligand_efficiency_ln>  (333) 
-0.794565

>  <r_i_glide_gscore>  (333) 
-3.13411

>  <r_i_glide_lipo>  (333) 
-0.0945456

>  <r_i_glide_hbond>  (333) 
-0.213751

>  <r_i_glide_metal>  (333) 
-0

>  <r_i_glide_rewards>  (333) 
-1.61918

>  <r_i_glide_evdw>  (333) 
-15.0901

>  <r_i_glide_ecoul>  (333) 
-2.62462

>  <r_i_glide_erotb>  (333) 
0

>  <r_i_glide_esite>  (333) 
-0.0584401

>  <r_i_glide_emodel>  (333) 
-24.2017

>  <r_i_glide_energy>  (333) 
-17.7147

>  <r_i_glide_einternal>  (333) 
0.215149

>  <r_i_glide_intrahb_reward>  (333) 
-0

>  <i_i_glide_confnum>  (333) 
4

>  <i_i_glide_posenum>  (333) 
33

>  <r_i_glide_eff_state_penalty>  (333) 
0

>  <ligand_id>  (333) 
97

>  <original_smiles>  (333) 
CC(C(=O)O)n1cnc2sc3c(c2c1=O)CCCC3

>  <smiles>  (333) 
[H]c1nc2sc3c(c2c(=O)n1C([H])(C(=O)[O-])C([H])([H])[H])C([H])([H])C([H])([H])C([H])([H])C3([H])[H]

$$$$
98:0:0
     RDKit          3D

 52 57  0  0  1  0  0  0  0  0999 V2000
    1.9437   -1.3903    2.3001 C   0  0  0  0  0  0  0  0  0  0  0  0
    2.5648   -2.7738    2.3828 C   0  0  0  0  0  0  0  0  0  0  0  0
    2.1122   -3.7840    3.1699 C   0  0  0  0  0  0  0  0  0  0  0  0
    2.7351   -5.2057    3.3772 C   0  0  1  0  0  0  0  0  0  0  0  0
    1.8237   -6.3592    2.9981 C   0  0  2  0  0  0  0  0  0  0  0  0
    0.4961   -6.6009    3.7449 C   0  0  0  0  0  0  0  0  0  0  0  0
   -0.1905   -7.8980    3.2332 C   0  0  1  0  0  0  0  0  0  0  0  0
   -1.4839   -8.1808    4.0219 C   0  0  0  0  0  0  0  0  0  0  0  0
   -0.5873   -7.6336    1.8999 O   0  0  0  0  0  0  0  0  0  0  0  0
    0.7845   -9.1133    3.2818 C   0  0  1  0  0  0  0  0  0  0  0  0
    0.2256  -10.2902    2.7258 O   0  0  0  0  0  0  0  0  0  0  0  0
    2.2093   -8.8463    2.7037 C   0  0  1  0  0  0  0  0  0  0  0  0
    2.1499   -8.7229    1.2980 O   0  0  0  0  0  0  0  0  0  0  0  0
    2.7557   -7.5269    3.2862 C   0  0  1  0  0  0  0  0  0  0  0  0
    4.0665   -7.1298    2.8865 O   0  0  0  0  0  0  0  0  0  0  0  0
    4.1045   -5.7104    2.7313 C   0  0  1  0  0  0  0  0  0  0  0  0
    4.3310   -5.4872    1.2112 C   0  0  2  0  0  0  0  0  0  0  0  0
    5.5934   -4.8828    0.7630 O   0  0  0  0  0  0  0  0  0  0  0  0
    4.8616   -3.8621   -0.0158 C   0  0  2  0  0  0  0  0  0  0  0  0
    5.0732   -3.9709   -1.5275 C   0  0  0  0  0  0  0  0  0  0  0  0
    4.7330   -2.4663    0.6239 C   0  0  1  0  0  0  0  0  0  0  0  0
    5.4749   -1.1836    0.5379 C   0  0  0  0  0  0  0  0  0  0  0  0
    4.2307   -1.3897   -0.1900 O   0  0  0  0  0  0  0  0  0  0  0  0
    3.8172   -3.0889    1.6360 C   0  0  2  0  0  0  0  0  0  0  0  0
    3.6305   -4.2954    0.7268 C   0  0  2  0  0  0  0  0  0  0  0  0
    2.4466   -4.4732   -0.0336 O   0  0  0  0  0  0  0  0  0  0  0  0
    2.6475   -0.6357    2.6513 H   0  0  0  0  0  0  0  0  0  0  0  0
    1.0525   -1.3361    2.9283 H   0  0  0  0  0  0  0  0  0  0  0  0
    1.6580   -1.1438    1.2774 H   0  0  0  0  0  0  0  0  0  0  0  0
    1.2278   -3.5975    3.7657 H   0  0  0  0  0  0  0  0  0  0  0  0
    2.8657   -5.2465    4.4537 H   0  0  0  0  0  0  0  0  0  0  0  0
    1.6129   -6.2741    1.9322 H   0  0  0  0  0  0  0  0  0  0  0  0
    0.6772   -6.7008    4.8164 H   0  0  0  0  0  0  0  0  0  0  0  0
   -0.1763   -5.7522    3.6266 H   0  0  0  0  0  0  0  0  0  0  0  0
   -1.2746   -8.3831    5.0759 H   0  0  0  0  0  0  0  0  0  0  0  0
   -2.0222   -9.0530    3.6377 H   0  0  0  0  0  0  0  0  0  0  0  0
   -2.1746   -7.3369    3.9782 H   0  0  0  0  0  0  0  0  0  0  0  0
   -0.7108   -8.4695    1.4735 H   0  0  0  0  0  0  0  0  0  0  0  0
    0.9419   -9.3370    4.3346 H   0  0  0  0  0  0  0  0  0  0  0  0
    0.1606  -10.2193    1.7858 H   0  0  0  0  0  0  0  0  0  0  0  0
    2.8842   -9.6730    2.9645 H   0  0  0  0  0  0  0  0  0  0  0  0
    1.7211   -9.4837    0.9383 H   0  0  0  0  0  0  0  0  0  0  0  0
    2.8101   -7.6507    4.3654 H   0  0  0  0  0  0  0  0  0  0  0  0
    4.9455   -5.3309    3.3068 H   0  0  0  0  0  0  0  0  0  0  0  0
    4.0682   -6.3431    0.5907 H   0  0  0  0  0  0  0  0  0  0  0  0
    4.3438   -3.4091   -2.1248 H   0  0  0  0  0  0  0  0  0  0  0  0
    5.0030   -5.0215   -1.8208 H   0  0  0  0  0  0  0  0  0  0  0  0
    6.0790   -3.6204   -1.7804 H   0  0  0  0  0  0  0  0  0  0  0  0
    5.4421   -0.5115    1.3885 H   0  0  0  0  0  0  0  0  0  0  0  0
    6.3753   -1.1461   -0.0562 H   0  0  0  0  0  0  0  0  0  0  0  0
    4.4661   -3.3313    2.4850 H   0  0  0  0  0  0  0  0  0  0  0  0
    2.7140   -4.7817   -0.8870 H   0  0  0  0  0  0  0  0  0  0  0  0
  1  2  1  0
  1 27  1  0
  1 28  1  0
  1 29  1  0
  2 24  1  0
  2  3  2  0
  3  4  1  0
  3 30  1  0
  4 16  1  0
  4  5  1  0
  4 31  1  1
  5 14  1  0
  5  6  1  0
  5 32  1  6
  6  7  1  0
  6 33  1  0
  6 34  1  0
  7  8  1  0
  7  9  1  6
  7 10  1  0
  8 35  1  0
  8 36  1  0
  8 37  1  0
  9 38  1  0
 10 11  1  0
 10 12  1  0
 10 39  1  1
 11 40  1  0
 12 13  1  0
 12 14  1  0
 12 41  1  6
 13 42  1  0
 14 15  1  0
 14 43  1  1
 15 16  1  0
 16 17  1  0
 16 44  1  1
 17 25  1  0
 17 18  1  0
 17 45  1  6
 18 19  1  0
 19 25  1  0
 19 20  1  6
 19 21  1  0
 20 46  1  0
 20 47  1  0
 20 48  1  0
 21 23  1  6
 21 22  1  0
 21 24  1  0
 22 23  1  0
 22 49  1  0
 22 50  1  0
 24 25  1  0
 24 51  1  1
 25 26  1  6
 26 52  1  0
M  END
>  <i_m_ct_stereo_status>  (334) 
1

>  <s_m_source_file>  (334) 
/var/tmp/pbs.5076255.sched01/tmpay8aiv4m/132fzfu5vr2.sdf

>  <i_m_source_file_index>  (334) 
27

>  <i_lp_mmshare_version>  (334) 
48012

>  <i_f3d_flags>  (334) 
0

>  <s_epik_input>  (334) 
W0NIMl0xW0NAQF0oW0NIM10pKFtPSF0pW0NAQEhdKFtPSF0pW0NAQEhdKFtPSF0pW0NAQEhdKE8yKVtDQEBIXTFbQ0BIXShbQ0hdPUMoW0NIM10pW0NASF0zNClbQ0BASF0yW0NASF0oTzUpW0NAXTQoW09IXSlbQ0BAXTUoW0NIM10pW0NAXTM2W0NIMl1PNg==

>  <s_epik_cmdline>  (334) 
J2VwaWtfcHl0aG9uJywgJy1waHQnLCAnMi4wJywgJy1waCcsICc3LjAnLCAnLXRuJywgJzgnLCAnLW1hJywgJzIwMCcsICctaW1hZScsICc8aW5maWxlLm1hZT4nLCAnLW9tYWUnLCAnPG91dGZpbGUubWFlPic=

>  <r_lp_tautomer_probability>  (334) 
1

>  <r_epik_Ionization_Penalty>  (334) 
7.57603e-07

>  <r_epik_Ionization_Penalty_Charging>  (334) 
0

>  <r_epik_Ionization_Penalty_Neutral>  (334) 
7.57603e-07

>  <r_epik_State_Penalty>  (334) 
-0

>  <r_epik_Charging_Adjusted_Penalty>  (334) 
0

>  <i_epik_Tot_Q>  (334) 
0

>  <i_epik_Tot_abs_Q>  (334) 
0

>  <s_lp_Force_Field>  (334) 
OPLS3e

>  <r_lp_Energy>  (334) 
46.5141

>  <b_lp_Chiralities_Consistent>  (334) 
1

>  <s_lp_Variant>  (334) 
98:0-1

>  <s_i_glide_gridfile>  (334) 
pfpi4k_grid

>  <i_i_glide_lignum>  (334) 
27

>  <i_i_glide_rotatable_bonds>  (334) 
4

>  <r_i_docking_score>  (334) 
-3.48646

>  <r_i_glide_ligand_efficiency>  (334) 
-0.134095

>  <r_i_glide_ligand_efficiency_sa>  (334) 
-0.397255

>  <r_i_glide_ligand_efficiency_ln>  (334) 
-0.818784

>  <r_i_glide_gscore>  (334) 
-3.48646

>  <r_i_glide_lipo>  (334) 
-0.19263

>  <r_i_glide_hbond>  (334) 
0

>  <r_i_glide_metal>  (334) 
-0

>  <r_i_glide_rewards>  (334) 
-0.910871

>  <r_i_glide_evdw>  (334) 
-21.9145

>  <r_i_glide_ecoul>  (334) 
-8.58156

>  <r_i_glide_erotb>  (334) 
0

>  <r_i_glide_esite>  (334) 
0

>  <r_i_glide_emodel>  (334) 
-36.4223

>  <r_i_glide_energy>  (334) 
-30.496

>  <r_i_glide_einternal>  (334) 
1.50551

>  <r_i_glide_intrahb_reward>  (334) 
-0

>  <i_i_glide_confnum>  (334) 
2

>  <i_i_glide_posenum>  (334) 
8

>  <r_i_glide_eff_state_penalty>  (334) 
0

>  <ligand_id>  (334) 
98

>  <original_smiles>  (334) 
CC1=CC2C3CC(C)(O)C(O)C(O)C3OC2C2OC3(C)C4(CO4)C1C23O

>  <smiles>  (334) 
[H]OC1([H])C2([H])OC3([H])C4([H])OC5(C([H])([H])[H])C6(OC6([H])[H])C([H])(C(C([H])([H])[H])=C([H])C3([H])C2([H])C([H])([H])C(O[H])(C([H])([H])[H])C1([H])O[H])C45O[H]

$$$$
98:0:1
     RDKit          3D

 52 57  0  0  1  0  0  0  0  0999 V2000
    3.0201   -9.7497    1.2747 C   0  0  0  0  0  0  0  0  0  0  0  0
    3.1184   -8.3468    1.8397 C   0  0  0  0  0  0  0  0  0  0  0  0
    3.9581   -7.3819    1.3815 C   0  0  0  0  0  0  0  0  0  0  0  0
    4.1759   -5.9494    1.9685 C   0  0  1  0  0  0  0  0  0  0  0  0
    3.8620   -4.8218    1.0020 C   0  0  2  0  0  0  0  0  0  0  0  0
    4.6664   -4.6557   -0.3042 C   0  0  0  0  0  0  0  0  0  0  0  0
    4.2383   -3.3613   -1.0467 C   0  0  1  0  0  0  0  0  0  0  0  0
    5.0919   -3.1528   -2.3153 C   0  0  0  0  0  0  0  0  0  0  0  0
    2.9094   -3.5285   -1.5056 O   0  0  0  0  0  0  0  0  0  0  0  0
    4.3070   -2.1363   -0.0849 C   0  0  1  0  0  0  0  0  0  0  0  0
    3.8134   -0.9851   -0.7215 O   0  0  0  0  0  0  0  0  0  0  0  0
    3.6428   -2.3087    1.3014 C   0  0  1  0  0  0  0  0  0  0  0  0
    2.2199   -2.3627    1.2031 O   0  0  0  0  0  0  0  0  0  0  0  0
    4.1395   -3.6298    1.9110 C   0  0  1  0  0  0  0  0  0  0  0  0
    3.6779   -3.9714    3.2137 O   0  0  0  0  0  0  0  0  0  0  0  0
    3.4861   -5.3805    3.2902 C   0  0  1  0  0  0  0  0  0  0  0  0
    1.9499   -5.5474    3.4625 C   0  0  2  0  0  0  0  0  0  0  0  0
    1.4441   -6.0827    4.7346 O   0  0  0  0  0  0  0  0  0  0  0  0
    0.6737   -7.1281    4.0174 C   0  0  2  0  0  0  0  0  0  0  0  0
   -0.8378   -6.9848    4.1493 C   0  0  0  0  0  0  0  0  0  0  0  0
    1.2802   -8.5383    3.9571 C   0  0  1  0  0  0  0  0  0  0  0  0
    1.0966   -9.8057    4.7010 C   0  0  0  0  0  0  0  0  0  0  0  0
    0.4573   -9.5939    3.4095 O   0  0  0  0  0  0  0  0  0  0  0  0
    2.3363   -7.9707    3.0548 C   0  0  2  0  0  0  0  0  0  0  0  0
    1.4585   -6.7573    2.7894 C   0  0  2  0  0  0  0  0  0  0  0  0
    0.7306   -6.6476    1.5658 O   0  0  0  0  0  0  0  0  0  0  0  0
    3.3071  -10.4922    2.0236 H   0  0  0  0  0  0  0  0  0  0  0  0
    3.6898   -9.8681    0.4178 H   0  0  0  0  0  0  0  0  0  0  0  0
    2.0052   -9.9564    0.9451 H   0  0  0  0  0  0  0  0  0  0  0  0
    4.5845   -7.6169    0.5296 H   0  0  0  0  0  0  0  0  0  0  0  0
    5.2449   -5.9384    2.1464 H   0  0  0  0  0  0  0  0  0  0  0  0
    2.8065   -4.8845    0.7493 H   0  0  0  0  0  0  0  0  0  0  0  0
    5.7309   -4.5852   -0.0805 H   0  0  0  0  0  0  0  0  0  0  0  0
    4.5562   -5.5217   -0.9545 H   0  0  0  0  0  0  0  0  0  0  0  0
    6.1410   -2.9878   -2.0667 H   0  0  0  0  0  0  0  0  0  0  0  0
    4.7532   -2.2863   -2.8878 H   0  0  0  0  0  0  0  0  0  0  0  0
    5.0434   -4.0154   -2.9828 H   0  0  0  0  0  0  0  0  0  0  0  0
    2.8560   -4.3579   -1.9757 H   0  0  0  0  0  0  0  0  0  0  0  0
    5.3707   -1.9625    0.1076 H   0  0  0  0  0  0  0  0  0  0  0  0
    2.8854   -1.1256   -0.9137 H   0  0  0  0  0  0  0  0  0  0  0  0
    3.9062   -1.4795    1.9433 H   0  0  0  0  0  0  0  0  0  0  0  0
    1.9022   -1.6640    0.6413 H   0  0  0  0  0  0  0  0  0  0  0  0
    5.2246   -3.5401    2.0100 H   0  0  0  0  0  0  0  0  0  0  0  0
    4.0102   -5.7409    4.1720 H   0  0  0  0  0  0  0  0  0  0  0  0
    1.3619   -4.6944    3.1082 H   0  0  0  0  0  0  0  0  0  0  0  0
   -1.4273   -7.5390    3.4022 H   0  0  0  0  0  0  0  0  0  0  0  0
   -1.0722   -5.9268    4.0626 H   0  0  0  0  0  0  0  0  0  0  0  0
   -1.1348   -7.3054    5.1520 H   0  0  0  0  0  0  0  0  0  0  0  0
    1.9241  -10.5090    4.7431 H   0  0  0  0  0  0  0  0  0  0  0  0
    0.4505   -9.8049    5.5660 H   0  0  0  0  0  0  0  0  0  0  0  0
    3.1820   -7.7244    3.7116 H   0  0  0  0  0  0  0  0  0  0  0  0
    0.5661   -7.5344    1.2862 H   0  0  0  0  0  0  0  0  0  0  0  0
  1  2  1  0
  1 27  1  0
  1 28  1  0
  1 29  1  0
  2 24  1  0
  2  3  2  0
  3  4  1  0
  3 30  1  0
  4 16  1  0
  4  5  1  0
  4 31  1  1
  5 14  1  0
  5  6  1  0
  5 32  1  6
  6  7  1  0
  6 33  1  0
  6 34  1  0
  7  8  1  0
  7  9  1  6
  7 10  1  0
  8 35  1  0
  8 36  1  0
  8 37  1  0
  9 38  1  0
 10 11  1  0
 10 12  1  0
 10 39  1  1
 11 40  1  0
 12 13  1  0
 12 14  1  0
 12 41  1  1
 13 42  1  0
 14 15  1  0
 14 43  1  1
 15 16  1  0
 16 17  1  0
 16 44  1  1
 17 25  1  0
 17 18  1  0
 17 45  1  6
 18 19  1  0
 19 25  1  0
 19 20  1  6
 19 21  1  0
 20 46  1  0
 20 47  1  0
 20 48  1  0
 21 23  1  6
 21 22  1  0
 21 24  1  0
 22 23  1  0
 22 49  1  0
 22 50  1  0
 24 25  1  0
 24 51  1  1
 25 26  1  6
 26 52  1  0
M  END
>  <i_m_ct_stereo_status>  (335) 
1

>  <s_m_source_file>  (335) 
/var/tmp/pbs.5076255.sched01/tmpay8aiv4m/132fzfu5vr2.sdf

>  <i_m_source_file_index>  (335) 
27

>  <i_lp_mmshare_version>  (335) 
48012

>  <i_f3d_flags>  (335) 
0

>  <s_epik_input>  (335) 
W0NIMl0xW0NAQF0oW0NIM10pKFtPSF0pW0NAQEhdKFtPSF0pW0NAQEhdKFtPSF0pW0NAQEhdKE8yKVtDQEBIXTFbQ0BIXShbQ0hdPUMoW0NIM10pW0NASF0zNClbQ0BASF0yW0NASF0oTzUpW0NAXTQoW09IXSlbQ0BAXTUoW0NIM10pW0NAXTM2W0NIMl1PNg==

>  <s_epik_cmdline>  (335) 
J2VwaWtfcHl0aG9uJywgJy1waHQnLCAnMi4wJywgJy1waCcsICc3LjAnLCAnLXRuJywgJzgnLCAnLW1hJywgJzIwMCcsICctaW1hZScsICc8aW5maWxlLm1hZT4nLCAnLW9tYWUnLCAnPG91dGZpbGUubWFlPic=

>  <r_lp_tautomer_probability>  (335) 
1

>  <r_epik_Ionization_Penalty>  (335) 
7.57603e-07

>  <r_epik_Ionization_Penalty_Charging>  (335) 
0

>  <r_epik_Ionization_Penalty_Neutral>  (335) 
7.57603e-07

>  <r_epik_State_Penalty>  (335) 
-0

>  <r_epik_Charging_Adjusted_Penalty>  (335) 
0

>  <i_epik_Tot_Q>  (335) 
0

>  <i_epik_Tot_abs_Q>  (335) 
0

>  <s_lp_Force_Field>  (335) 
OPLS3e

>  <r_lp_Energy>  (335) 
46.5141

>  <b_lp_Chiralities_Consistent>  (335) 
1

>  <s_lp_Variant>  (335) 
98:0-1

>  <s_i_glide_gridfile>  (335) 
pfpi4k_grid

>  <i_i_glide_lignum>  (335) 
27

>  <i_i_glide_rotatable_bonds>  (335) 
4

>  <r_i_docking_score>  (335) 
-3.40633

>  <r_i_glide_ligand_efficiency>  (335) 
-0.131013

>  <r_i_glide_ligand_efficiency_sa>  (335) 
-0.388124

>  <r_i_glide_ligand_efficiency_ln>  (335) 
-0.799965

>  <r_i_glide_gscore>  (335) 
-3.40633

>  <r_i_glide_lipo>  (335) 
-0.284424

>  <r_i_glide_hbond>  (335) 
0

>  <r_i_glide_metal>  (335) 
-0

>  <r_i_glide_rewards>  (335) 
-0.910871

>  <r_i_glide_evdw>  (335) 
-20.0621

>  <r_i_glide_ecoul>  (335) 
-8.05285

>  <r_i_glide_erotb>  (335) 
0

>  <r_i_glide_esite>  (335) 
0

>  <r_i_glide_emodel>  (335) 
-33.8671

>  <r_i_glide_energy>  (335) 
-28.115

>  <r_i_glide_einternal>  (335) 
1.49485

>  <r_i_glide_intrahb_reward>  (335) 
-0

>  <i_i_glide_confnum>  (335) 
2

>  <i_i_glide_posenum>  (335) 
7

>  <r_i_glide_eff_state_penalty>  (335) 
0

>  <ligand_id>  (335) 
98

>  <original_smiles>  (335) 
CC1=CC2C3CC(C)(O)C(O)C(O)C3OC2C2OC3(C)C4(CO4)C1C23O

>  <smiles>  (335) 
[H]OC1([H])C2([H])OC3([H])C4([H])OC5(C([H])([H])[H])C6(OC6([H])[H])C([H])(C(C([H])([H])[H])=C([H])C3([H])C2([H])C([H])([H])C(O[H])(C([H])([H])[H])C1([H])O[H])C45O[H]

$$$$
98:0:2
     RDKit          3D

 52 57  0  0  1  0  0  0  0  0999 V2000
    2.5980   -1.0678    2.6266 C   0  0  0  0  0  0  0  0  0  0  0  0
    3.0660   -2.5120    2.6184 C   0  0  0  0  0  0  0  0  0  0  0  0
    2.5386   -3.5027    3.3828 C   0  0  0  0  0  0  0  0  0  0  0  0
    3.0103   -4.9895    3.5017 C   0  0  1  0  0  0  0  0  0  0  0  0
    1.9606   -6.0191    3.1154 C   0  0  2  0  0  0  0  0  0  0  0  0
    0.6476   -6.1519    3.9167 C   0  0  0  0  0  0  0  0  0  0  0  0
   -0.1992   -7.3438    3.3856 C   0  0  1  0  0  0  0  0  0  0  0  0
   -1.4757   -7.5363    4.2272 C   0  0  0  0  0  0  0  0  0  0  0  0
   -0.6473   -6.9870    2.0896 O   0  0  0  0  0  0  0  0  0  0  0  0
    0.6446   -8.6618    3.3392 C   0  0  1  0  0  0  0  0  0  0  0  0
   -0.0742   -9.7360    2.7541 O   0  0  0  0  0  0  0  0  0  0  0  0
    2.0557   -8.5211    2.6963 C   0  0  1  0  0  0  0  0  0  0  0  0
    1.8994   -8.3353    1.3066 O   0  0  0  0  0  0  0  0  0  0  0  0
    2.7689   -7.2960    3.3035 C   0  0  1  0  0  0  0  0  0  0  0  0
    4.0965   -7.0203    2.8595 O   0  0  0  0  0  0  0  0  0  0  0  0
    4.2874   -5.6081    2.7706 C   0  0  1  0  0  0  0  0  0  0  0  0
    4.4814   -5.3369    1.2497 C   0  0  2  0  0  0  0  0  0  0  0  0
    5.7882   -4.8483    0.7785 O   0  0  0  0  0  0  0  0  0  0  0  0
    5.1353   -3.7247    0.0706 C   0  0  2  0  0  0  0  0  0  0  0  0
    5.2706   -3.7876   -1.4538 C   0  0  0  0  0  0  0  0  0  0  0  0
    5.1775   -2.3509    0.7701 C   0  0  1  0  0  0  0  0  0  0  0  0
    6.0554   -1.1584    0.7087 C   0  0  0  0  0  0  0  0  0  0  0  0
    4.7644   -1.1892    0.0306 O   0  0  0  0  0  0  0  0  0  0  0  0
    4.2513   -2.9192    1.8073 C   0  0  2  0  0  0  0  0  0  0  0  0
    3.8936   -4.0461    0.8537 C   0  0  2  0  0  0  0  0  0  0  0  0
    2.6609   -4.0290    0.1468 O   0  0  0  0  0  0  0  0  0  0  0  0
    3.3952   -0.4091    2.9748 H   0  0  0  0  0  0  0  0  0  0  0  0
    1.7477   -0.9457    3.3038 H   0  0  0  0  0  0  0  0  0  0  0  0
    2.2889   -0.7423    1.6320 H   0  0  0  0  0  0  0  0  0  0  0  0
    1.7040   -3.2510    4.0275 H   0  0  0  0  0  0  0  0  0  0  0  0
    3.1856   -5.0971    4.5666 H   0  0  0  0  0  0  0  0  0  0  0  0
    1.7181   -5.8622    2.0663 H   0  0  0  0  0  0  0  0  0  0  0  0
    0.8704   -6.3224    4.9725 H   0  0  0  0  0  0  0  0  0  0  0  0
    0.0710   -5.2311    3.8712 H   0  0  0  0  0  0  0  0  0  0  0  0
   -1.2255   -7.7984    5.2578 H   0  0  0  0  0  0  0  0  0  0  0  0
   -2.1087   -8.3368    3.8329 H   0  0  0  0  0  0  0  0  0  0  0  0
   -2.0838   -6.6333    4.2489 H   0  0  0  0  0  0  0  0  0  0  0  0
   -0.9114   -7.7963    1.6758 H   0  0  0  0  0  0  0  0  0  0  0  0
    0.8200   -8.9534    4.3767 H   0  0  0  0  0  0  0  0  0  0  0  0
   -0.0866   -9.6510    1.8118 H   0  0  0  0  0  0  0  0  0  0  0  0
    2.6513   -9.4177    2.8853 H   0  0  0  0  0  0  0  0  0  0  0  0
    1.5651   -9.1345    0.9283 H   0  0  0  0  0  0  0  0  0  0  0  0
    2.8635   -7.4753    4.3753 H   0  0  0  0  0  0  0  0  0  0  0  0
    5.1894   -5.3472    3.3189 H   0  0  0  0  0  0  0  0  0  0  0  0
    4.0942   -6.1247    0.5999 H   0  0  0  0  0  0  0  0  0  0  0  0
    4.5775   -3.1334   -1.9964 H   0  0  0  0  0  0  0  0  0  0  0  0
    5.0805   -4.8102   -1.7873 H   0  0  0  0  0  0  0  0  0  0  0  0
    6.2939   -3.5329   -1.7436 H   0  0  0  0  0  0  0  0  0  0  0  0
    6.1350   -0.5343    1.5928 H   0  0  0  0  0  0  0  0  0  0  0  0
    6.9326   -1.1957    0.0799 H   0  0  0  0  0  0  0  0  0  0  0  0
    4.9072   -3.2668    2.6118 H   0  0  0  0  0  0  0  0  0  0  0  0
    2.7111   -3.3213   -0.4771 H   0  0  0  0  0  0  0  0  0  0  0  0
  1  2  1  0
  1 27  1  0
  1 28  1  0
  1 29  1  0
  2 24  1  0
  2  3  2  0
  3  4  1  0
  3 30  1  0
  4 16  1  0
  4  5  1  0
  4 31  1  1
  5 14  1  0
  5  6  1  0
  5 32  1  6
  6  7  1  0
  6 33  1  0
  6 34  1  0
  7  8  1  0
  7  9  1  6
  7 10  1  0
  8 35  1  0
  8 36  1  0
  8 37  1  0
  9 38  1  0
 10 11  1  0
 10 12  1  0
 10 39  1  1
 11 40  1  0
 12 13  1  0
 12 14  1  0
 12 41  1  6
 13 42  1  0
 14 15  1  0
 14 43  1  1
 15 16  1  0
 16 17  1  0
 16 44  1  1
 17 25  1  0
 17 18  1  0
 17 45  1  6
 18 19  1  0
 19 25  1  0
 19 20  1  6
 19 21  1  0
 20 46  1  0
 20 47  1  0
 20 48  1  0
 21 23  1  6
 21 22  1  0
 21 24  1  0
 22 23  1  0
 22 49  1  0
 22 50  1  0
 24 25  1  0
 24 51  1  1
 25 26  1  6
 26 52  1  0
M  END
>  <i_m_ct_stereo_status>  (336) 
1

>  <s_m_source_file>  (336) 
/var/tmp/pbs.5076255.sched01/tmpay8aiv4m/132fzfu5vr2.sdf

>  <i_m_source_file_index>  (336) 
27

>  <i_lp_mmshare_version>  (336) 
48012

>  <i_f3d_flags>  (336) 
0

>  <s_epik_input>  (336) 
W0NIMl0xW0NAQF0oW0NIM10pKFtPSF0pW0NAQEhdKFtPSF0pW0NAQEhdKFtPSF0pW0NAQEhdKE8yKVtDQEBIXTFbQ0BIXShbQ0hdPUMoW0NIM10pW0NASF0zNClbQ0BASF0yW0NASF0oTzUpW0NAXTQoW09IXSlbQ0BAXTUoW0NIM10pW0NAXTM2W0NIMl1PNg==

>  <s_epik_cmdline>  (336) 
J2VwaWtfcHl0aG9uJywgJy1waHQnLCAnMi4wJywgJy1waCcsICc3LjAnLCAnLXRuJywgJzgnLCAnLW1hJywgJzIwMCcsICctaW1hZScsICc8aW5maWxlLm1hZT4nLCAnLW9tYWUnLCAnPG91dGZpbGUubWFlPic=

>  <r_lp_tautomer_probability>  (336) 
1

>  <r_epik_Ionization_Penalty>  (336) 
7.57603e-07

>  <r_epik_Ionization_Penalty_Charging>  (336) 
0

>  <r_epik_Ionization_Penalty_Neutral>  (336) 
7.57603e-07

>  <r_epik_State_Penalty>  (336) 
-0

>  <r_epik_Charging_Adjusted_Penalty>  (336) 
0

>  <i_epik_Tot_Q>  (336) 
0

>  <i_epik_Tot_abs_Q>  (336) 
0

>  <s_lp_Force_Field>  (336) 
OPLS3e

>  <r_lp_Energy>  (336) 
46.5141

>  <b_lp_Chiralities_Consistent>  (336) 
1

>  <s_lp_Variant>  (336) 
98:0-1

>  <s_i_glide_gridfile>  (336) 
pfpi4k_grid

>  <i_i_glide_lignum>  (336) 
27

>  <i_i_glide_rotatable_bonds>  (336) 
4

>  <r_i_docking_score>  (336) 
-3.35501

>  <r_i_glide_ligand_efficiency>  (336) 
-0.129039

>  <r_i_glide_ligand_efficiency_sa>  (336) 
-0.382277

>  <r_i_glide_ligand_efficiency_ln>  (336) 
-0.787914

>  <r_i_glide_gscore>  (336) 
-3.35501

>  <r_i_glide_lipo>  (336) 
-0.291276

>  <r_i_glide_hbond>  (336) 
0

>  <r_i_glide_metal>  (336) 
-0

>  <r_i_glide_rewards>  (336) 
-0.910871

>  <r_i_glide_evdw>  (336) 
-20.4842

>  <r_i_glide_ecoul>  (336) 
-7.52436

>  <r_i_glide_erotb>  (336) 
0

>  <r_i_glide_esite>  (336) 
0

>  <r_i_glide_emodel>  (336) 
-33.9186

>  <r_i_glide_energy>  (336) 
-28.0086

>  <r_i_glide_einternal>  (336) 
1.08113

>  <r_i_glide_intrahb_reward>  (336) 
-0

>  <i_i_glide_confnum>  (336) 
2

>  <i_i_glide_posenum>  (336) 
2

>  <r_i_glide_eff_state_penalty>  (336) 
0

>  <ligand_id>  (336) 
98

>  <original_smiles>  (336) 
CC1=CC2C3CC(C)(O)C(O)C(O)C3OC2C2OC3(C)C4(CO4)C1C23O

>  <smiles>  (336) 
[H]OC1([H])C2([H])OC3([H])C4([H])OC5(C([H])([H])[H])C6(OC6([H])[H])C([H])(C(C([H])([H])[H])=C([H])C3([H])C2([H])C([H])([H])C(O[H])(C([H])([H])[H])C1([H])O[H])C45O[H]

$$$$
99:0:0
     RDKit          3D

 49 54  0  0  1  0  0  0  0  0999 V2000
   -2.1818   -9.2061    2.3174 C   0  0  0  0  0  0  0  0  0  0  0  0
   -1.2164   -8.4963    2.5949 C   0  0  0  0  0  0  0  0  0  0  0  0
   -0.0689   -7.7004    2.9257 C   0  0  0  0  0  0  0  0  0  0  0  0
   -0.1819   -6.6561    3.8644 C   0  0  0  0  0  0  0  0  0  0  0  0
    0.9308   -5.8449    4.1552 C   0  0  0  0  0  0  0  0  0  0  0  0
    2.1693   -6.1088    3.5291 C   0  0  0  0  0  0  0  0  0  0  0  0
    2.3075   -7.1909    2.6287 C   0  0  0  0  0  0  0  0  0  0  0  0
    1.1629   -7.9569    2.3009 C   0  0  0  0  0  0  0  0  0  0  0  0
    3.6433   -7.4900    1.9258 C   0  0  1  0  0  0  0  0  0  0  0  0
    3.7858   -9.1102    1.7602 C   0  0  0  0  0  0  0  0  0  0  0  0
    5.3226   -9.3465    2.2575 C   0  0  1  0  0  0  0  0  0  0  0  0
    5.7935   -8.6002    1.3142 C   0  0  0  0  0  0  0  0  0  0  0  0
    4.6836   -8.1083    2.6235 C   0  0  1  0  0  0  0  0  0  0  0  0
    5.9731   -7.9466    2.9974 C   0  0  2  0  0  0  0  0  0  0  0  0
    5.9929   -6.4503    2.5224 C   0  0  0  0  0  0  0  0  0  0  0  0
    4.6118   -6.2002    1.7506 C   0  0  1  0  0  0  0  0  0  0  0  0
    4.8163   -5.9078    0.2506 C   0  0  0  0  0  0  0  0  0  0  0  0
    5.6683   -4.7737    0.0430 O   0  0  0  0  0  0  0  0  0  0  0  0
    5.2055   -3.6512   -0.6198 C   0  0  0  0  0  0  0  0  0  0  0  0
    3.8761   -3.4484   -1.0761 C   0  0  0  0  0  0  0  0  0  0  0  0
    3.5539   -2.2536   -1.7298 C   0  0  0  0  0  0  0  0  0  0  0  0
    4.5533   -1.2812   -1.9086 C   0  0  0  0  0  0  0  0  0  0  0  0
    5.8175   -1.4541   -1.4852 N   0  0  0  0  0  0  0  0  0  0  0  0
    6.1299   -2.6119   -0.8580 C   0  0  0  0  0  0  0  0  0  0  0  0
    3.9886   -4.9188    2.3706 C   0  0  0  0  0  0  0  0  0  0  0  0
    3.3306   -5.1749    3.7326 C   0  0  0  0  0  0  0  0  0  0  0  0
   -2.9812   -9.8555    2.0747 H   0  0  0  0  0  0  0  0  0  0  0  0
   -1.1291   -6.4643    4.3434 H   0  0  0  0  0  0  0  0  0  0  0  0
    0.8276   -5.0101    4.8343 H   0  0  0  0  0  0  0  0  0  0  0  0
    1.2246   -8.7479    1.5694 H   0  0  0  0  0  0  0  0  0  0  0  0
    3.0964   -9.7012    2.3968 H   0  0  0  0  0  0  0  0  0  0  0  0
    3.5296   -9.4575    0.7513 H   0  0  0  0  0  0  0  0  0  0  0  0
    5.8032  -10.3265    2.3072 H   0  0  0  0  0  0  0  0  0  0  0  0
    6.9058   -8.6030    1.2578 H   0  0  0  0  0  0  0  0  0  0  0  0
    5.4496   -8.9355    0.3199 H   0  0  0  0  0  0  0  0  0  0  0  0
    4.3581   -8.3040    3.7140 H   0  0  0  0  0  0  0  0  0  0  0  0
    6.1931   -8.0992    4.0593 H   0  0  0  0  0  0  0  0  0  0  0  0
    6.1228   -5.7906    3.3813 H   0  0  0  0  0  0  0  0  0  0  0  0
    6.8671   -6.2453    1.8881 H   0  0  0  0  0  0  0  0  0  0  0  0
    5.2850   -6.7244   -0.2806 H   0  0  0  0  0  0  0  0  0  0  0  0
    3.8245   -5.8741   -0.1999 H   0  0  0  0  0  0  0  0  0  0  0  0
    3.0703   -4.1524   -0.9475 H   0  0  0  0  0  0  0  0  0  0  0  0
    2.5425   -2.0842   -2.0701 H   0  0  0  0  0  0  0  0  0  0  0  0
    4.3220   -0.3488   -2.4018 H   0  0  0  0  0  0  0  0  0  0  0  0
    7.1597   -2.6980   -0.5356 H   0  0  0  0  0  0  0  0  0  0  0  0
    4.7443   -4.1375    2.4723 H   0  0  0  0  0  0  0  0  0  0  0  0
    3.2313   -4.5036    1.7008 H   0  0  0  0  0  0  0  0  0  0  0  0
    2.9893   -4.2325    4.1660 H   0  0  0  0  0  0  0  0  0  0  0  0
    4.0323   -5.6164    4.4402 H   0  0  0  0  0  0  0  0  0  0  0  0
  1  2  3  0
  1 27  1  0
  2  3  1  0
  3  8  1  0
  3  4  2  0
  4  5  1  0
  4 28  1  0
  5  6  2  0
  5 29  1  0
  6 26  1  0
  6  7  1  0
  7  8  2  0
  9  7  1  1
  8 30  1  0
  9 13  1  0
  9 16  1  0
  9 10  1  0
 10 11  1  0
 10 31  1  0
 10 32  1  0
 11 14  1  0
 11 12  1  0
 11 33  1  1
 12 13  1  0
 12 34  1  0
 12 35  1  0
 13 14  1  0
 13 36  1  1
 14 15  1  0
 14 37  1  1
 15 16  1  0
 15 38  1  0
 15 39  1  0
 16 17  1  6
 16 25  1  0
 17 18  1  0
 17 40  1  0
 17 41  1  0
 18 19  1  0
 19 24  1  0
 19 20  2  0
 20 21  1  0
 20 42  1  0
 21 22  2  0
 21 43  1  0
 22 23  1  0
 22 44  1  0
 23 24  2  0
 24 45  1  0
 25 26  1  0
 25 46  1  0
 25 47  1  0
 26 48  1  0
 26 49  1  0
M  END
>  <i_m_ct_stereo_status>  (337) 
1

>  <s_m_source_file>  (337) 
/var/tmp/pbs.5076255.sched01/tmpay8aiv4m/132fzfu5vr2.sdf

>  <i_m_source_file_index>  (337) 
28

>  <i_lp_mmshare_version>  (337) 
48012

>  <i_f3d_flags>  (337) 
0

>  <s_epik_input>  (337) 
W0NIXSNDYyhbY0hdMSlbY0hdW2NIXWMoYzFDMjM0KVtDSDJdW0NIMl1bQ0BdNChbQ0gyXVtDQEBIXTVbQ0BASF0oW0NIMl0yKVtDSDJdW0NIXTM1KVtDSDJdT2M2W2NIXVtjSF1bY0hdbltjSF02

>  <s_epik_cmdline>  (337) 
J2VwaWtfcHl0aG9uJywgJy1waHQnLCAnMi4wJywgJy1waCcsICc3LjAnLCAnLXRuJywgJzgnLCAnLW1hJywgJzIwMCcsICctaW1hZScsICc8aW5maWxlLm1hZT4nLCAnLW9tYWUnLCAnPG91dGZpbGUubWFlPic=

>  <r_lp_tautomer_probability>  (337) 
1

>  <r_epik_Ionization_Penalty>  (337) 
0.0026093

>  <r_epik_Ionization_Penalty_Charging>  (337) 
0

>  <r_epik_Ionization_Penalty_Neutral>  (337) 
0.0026093

>  <r_epik_State_Penalty>  (337) 
0.0018148

>  <r_epik_Charging_Adjusted_Penalty>  (337) 
0.0018148

>  <i_epik_Tot_Q>  (337) 
0

>  <i_epik_Tot_abs_Q>  (337) 
0

>  <s_lp_Force_Field>  (337) 
OPLS3e

>  <r_lp_Energy>  (337) 
387.819

>  <b_lp_Chiralities_Consistent>  (337) 
1

>  <s_lp_Variant>  (337) 
99:0-1

>  <s_i_glide_gridfile>  (337) 
pfpi4k_grid

>  <i_i_glide_lignum>  (337) 
28

>  <i_i_glide_rotatable_bonds>  (337) 
4

>  <r_i_docking_score>  (337) 
-2.74185

>  <r_i_glide_ligand_efficiency>  (337) 
-0.105456

>  <r_i_glide_ligand_efficiency_sa>  (337) 
-0.312412

>  <r_i_glide_ligand_efficiency_ln>  (337) 
-0.643915

>  <r_i_glide_gscore>  (337) 
-2.74185

>  <r_i_glide_lipo>  (337) 
-0.558056

>  <r_i_glide_hbond>  (337) 
-0.0772532

>  <r_i_glide_metal>  (337) 
-0

>  <r_i_glide_rewards>  (337) 
-1.08105

>  <r_i_glide_evdw>  (337) 
-26.581

>  <r_i_glide_ecoul>  (337) 
-2.31074

>  <r_i_glide_erotb>  (337) 
0.650171

>  <r_i_glide_esite>  (337) 
0

>  <r_i_glide_emodel>  (337) 
-33.0971

>  <r_i_glide_energy>  (337) 
-28.8917

>  <r_i_glide_einternal>  (337) 
1.36306

>  <r_i_glide_intrahb_reward>  (337) 
-0

>  <i_i_glide_confnum>  (337) 
6

>  <i_i_glide_posenum>  (337) 
25

>  <r_i_glide_eff_state_penalty>  (337) 
0

>  <ligand_id>  (337) 
99

>  <original_smiles>  (337) 
C#Cc1ccc2c(c1)C13CC4CC1C4CC3(COc1cccnc1)CC2

>  <smiles>  (337) 
[H]C#Cc1c([H])c([H])c2c(c1[H])C13C([H])([H])C4([H])C([H])([H])C1([H])C4([H])C([H])([H])C3(C([H])([H])Oc1c([H])nc([H])c([H])c1[H])C([H])([H])C2([H])[H]

$$$$
99:0:1
     RDKit          3D

 49 54  0  0  1  0  0  0  0  0999 V2000
    3.8156   -0.3184   -3.6435 C   0  0  0  0  0  0  0  0  0  0  0  0
    4.2513   -1.0975   -2.8096 C   0  0  0  0  0  0  0  0  0  0  0  0
    4.7477   -1.9955   -1.7889 C   0  0  0  0  0  0  0  0  0  0  0  0
    6.0534   -2.5327   -1.8847 C   0  0  0  0  0  0  0  0  0  0  0  0
    6.5352   -3.4179   -0.8899 C   0  0  0  0  0  0  0  0  0  0  0  0
    5.7007   -3.7620    0.1981 C   0  0  0  0  0  0  0  0  0  0  0  0
    4.4083   -3.2133    0.3260 C   0  0  0  0  0  0  0  0  0  0  0  0
    3.9276   -2.3448   -0.6941 C   0  0  0  0  0  0  0  0  0  0  0  0
    3.4890   -3.5676    1.4963 C   0  0  1  0  0  0  0  0  0  0  0  0
    2.6349   -2.2435    1.9164 C   0  0  0  0  0  0  0  0  0  0  0  0
    2.8137   -2.2499    3.5205 C   0  0  1  0  0  0  0  0  0  0  0  0
    2.2318   -3.3922    3.6618 C   0  0  0  0  0  0  0  0  0  0  0  0
    3.7235   -3.0591    2.7564 C   0  0  1  0  0  0  0  0  0  0  0  0
    3.9843   -3.4047    4.0405 C   0  0  2  0  0  0  0  0  0  0  0  0
    4.1883   -4.9043    3.6670 C   0  0  0  0  0  0  0  0  0  0  0  0
    3.7490   -5.0495    2.1173 C   0  0  1  0  0  0  0  0  0  0  0  0
    2.5447   -6.0244    1.9357 C   0  0  0  0  0  0  0  0  0  0  0  0
    1.6058   -5.8796    2.9824 O   0  0  0  0  0  0  0  0  0  0  0  0
    0.5500   -6.7058    3.1073 C   0  0  0  0  0  0  0  0  0  0  0  0
    0.2372   -7.7459    2.2043 C   0  0  0  0  0  0  0  0  0  0  0  0
   -0.8975   -8.5465    2.4661 C   0  0  0  0  0  0  0  0  0  0  0  0
   -1.6718   -8.2603    3.6246 C   0  0  0  0  0  0  0  0  0  0  0  0
   -1.3904   -7.2603    4.4597 N   0  0  0  0  0  0  0  0  0  0  0  0
   -0.2976   -6.5251    4.2322 C   0  0  0  0  0  0  0  0  0  0  0  0
    4.9496   -5.7626    1.4130 C   0  0  0  0  0  0  0  0  0  0  0  0
    6.1419   -4.8312    1.1575 C   0  0  0  0  0  0  0  0  0  0  0  0
    3.4186    0.3689   -4.3542 H   0  0  0  0  0  0  0  0  0  0  0  0
    6.6799   -2.2975   -2.7182 H   0  0  0  0  0  0  0  0  0  0  0  0
    7.5144   -3.8449   -1.0058 H   0  0  0  0  0  0  0  0  0  0  0  0
    2.9279   -1.9614   -0.6506 H   0  0  0  0  0  0  0  0  0  0  0  0
    3.0372   -1.3125    1.4985 H   0  0  0  0  0  0  0  0  0  0  0  0
    1.6185   -2.2670    1.5129 H   0  0  0  0  0  0  0  0  0  0  0  0
    2.3504   -1.5034    4.2033 H   0  0  0  0  0  0  0  0  0  0  0  0
    2.0428   -3.7136    4.7138 H   0  0  0  0  0  0  0  0  0  0  0  0
    1.2256   -3.4279    3.1732 H   0  0  0  0  0  0  0  0  0  0  0  0
    4.6725   -2.4073    2.7342 H   0  0  0  0  0  0  0  0  0  0  0  0
    4.8369   -2.9084    4.5372 H   0  0  0  0  0  0  0  0  0  0  0  0
    5.2282   -5.1908    3.8233 H   0  0  0  0  0  0  0  0  0  0  0  0
    3.6473   -5.5836    4.3346 H   0  0  0  0  0  0  0  0  0  0  0  0
    2.0758   -5.8090    0.9703 H   0  0  0  0  0  0  0  0  0  0  0  0
    2.8825   -7.0621    1.9239 H   0  0  0  0  0  0  0  0  0  0  0  0
    0.8258   -7.9416    1.3258 H   0  0  0  0  0  0  0  0  0  0  0  0
   -1.1585   -9.3612    1.8147 H   0  0  0  0  0  0  0  0  0  0  0  0
   -2.5441   -8.8598    3.8542 H   0  0  0  0  0  0  0  0  0  0  0  0
   -0.1005   -5.7287    4.9254 H   0  0  0  0  0  0  0  0  0  0  0  0
    5.2869   -6.6122    2.0187 H   0  0  0  0  0  0  0  0  0  0  0  0
    4.6268   -6.1927    0.4612 H   0  0  0  0  0  0  0  0  0  0  0  0
    6.9715   -5.4025    0.7408 H   0  0  0  0  0  0  0  0  0  0  0  0
    6.5047   -4.3707    2.0740 H   0  0  0  0  0  0  0  0  0  0  0  0
  1  2  3  0
  1 27  1  0
  2  3  1  0
  3  8  1  0
  3  4  2  0
  4  5  1  0
  4 28  1  0
  5  6  2  0
  5 29  1  0
  6 26  1  0
  6  7  1  0
  7  8  2  0
  9  7  1  6
  8 30  1  0
  9 13  1  0
  9 16  1  0
  9 10  1  0
 10 11  1  0
 10 31  1  0
 10 32  1  0
 11 14  1  0
 11 12  1  0
 11 33  1  1
 12 13  1  0
 12 34  1  0
 12 35  1  0
 13 14  1  0
 13 36  1  6
 14 15  1  0
 14 37  1  1
 15 16  1  0
 15 38  1  0
 15 39  1  0
 16 17  1  1
 16 25  1  0
 17 18  1  0
 17 40  1  0
 17 41  1  0
 18 19  1  0
 19 24  1  0
 19 20  2  0
 20 21  1  0
 20 42  1  0
 21 22  2  0
 21 43  1  0
 22 23  1  0
 22 44  1  0
 23 24  2  0
 24 45  1  0
 25 26  1  0
 25 46  1  0
 25 47  1  0
 26 48  1  0
 26 49  1  0
M  END
>  <i_m_ct_stereo_status>  (338) 
1

>  <s_m_source_file>  (338) 
/var/tmp/pbs.5076255.sched01/tmpay8aiv4m/132fzfu5vr2.sdf

>  <i_m_source_file_index>  (338) 
28

>  <i_lp_mmshare_version>  (338) 
48012

>  <i_f3d_flags>  (338) 
0

>  <s_epik_input>  (338) 
W0NIXSNDYyhbY0hdMSlbY0hdW2NIXWMoYzFDMjM0KVtDSDJdW0NIMl1bQ0BdNChbQ0gyXVtDQEBIXTVbQ0BASF0oW0NIMl0yKVtDSDJdW0NIXTM1KVtDSDJdT2M2W2NIXVtjSF1bY0hdbltjSF02

>  <s_epik_cmdline>  (338) 
J2VwaWtfcHl0aG9uJywgJy1waHQnLCAnMi4wJywgJy1waCcsICc3LjAnLCAnLXRuJywgJzgnLCAnLW1hJywgJzIwMCcsICctaW1hZScsICc8aW5maWxlLm1hZT4nLCAnLW9tYWUnLCAnPG91dGZpbGUubWFlPic=

>  <r_lp_tautomer_probability>  (338) 
1

>  <r_epik_Ionization_Penalty>  (338) 
0.0026093

>  <r_epik_Ionization_Penalty_Charging>  (338) 
0

>  <r_epik_Ionization_Penalty_Neutral>  (338) 
0.0026093

>  <r_epik_State_Penalty>  (338) 
0.0018148

>  <r_epik_Charging_Adjusted_Penalty>  (338) 
0.0018148

>  <i_epik_Tot_Q>  (338) 
0

>  <i_epik_Tot_abs_Q>  (338) 
0

>  <s_lp_Force_Field>  (338) 
OPLS3e

>  <r_lp_Energy>  (338) 
387.819

>  <b_lp_Chiralities_Consistent>  (338) 
1

>  <s_lp_Variant>  (338) 
99:0-1

>  <s_i_glide_gridfile>  (338) 
pfpi4k_grid

>  <i_i_glide_lignum>  (338) 
28

>  <i_i_glide_rotatable_bonds>  (338) 
4

>  <r_i_docking_score>  (338) 
-2.72085

>  <r_i_glide_ligand_efficiency>  (338) 
-0.104648

>  <r_i_glide_ligand_efficiency_sa>  (338) 
-0.310019

>  <r_i_glide_ligand_efficiency_ln>  (338) 
-0.638982

>  <r_i_glide_gscore>  (338) 
-2.72085

>  <r_i_glide_lipo>  (338) 
-0.611301

>  <r_i_glide_hbond>  (338) 
0

>  <r_i_glide_metal>  (338) 
-0

>  <r_i_glide_rewards>  (338) 
-1.08105

>  <r_i_glide_evdw>  (338) 
-27.6585

>  <r_i_glide_ecoul>  (338) 
-1.97159

>  <r_i_glide_erotb>  (338) 
0.650171

>  <r_i_glide_esite>  (338) 
0

>  <r_i_glide_emodel>  (338) 
-31.8542

>  <r_i_glide_energy>  (338) 
-29.6301

>  <r_i_glide_einternal>  (338) 
4.71198

>  <r_i_glide_intrahb_reward>  (338) 
-0

>  <i_i_glide_confnum>  (338) 
1

>  <i_i_glide_posenum>  (338) 
1

>  <r_i_glide_eff_state_penalty>  (338) 
0

>  <ligand_id>  (338) 
99

>  <original_smiles>  (338) 
C#Cc1ccc2c(c1)C13CC4CC1C4CC3(COc1cccnc1)CC2

>  <smiles>  (338) 
[H]C#Cc1c([H])c([H])c2c(c1[H])C13C([H])([H])C4([H])C([H])([H])C1([H])C4([H])C([H])([H])C3(C([H])([H])Oc1c([H])nc([H])c([H])c1[H])C([H])([H])C2([H])[H]

$$$$
99:0:2
     RDKit          3D

 49 54  0  0  1  0  0  0  0  0999 V2000
   -1.5505   -9.0072    3.2879 C   0  0  0  0  0  0  0  0  0  0  0  0
   -0.7862   -8.0658    3.3981 C   0  0  0  0  0  0  0  0  0  0  0  0
    0.1465   -6.9650    3.5284 C   0  0  0  0  0  0  0  0  0  0  0  0
   -0.0619   -5.9675    4.4959 C   0  0  0  0  0  0  0  0  0  0  0  0
    0.8141   -4.8669    4.5712 C   0  0  0  0  0  0  0  0  0  0  0  0
    1.9201   -4.7943    3.6983 C   0  0  0  0  0  0  0  0  0  0  0  0
    2.1696   -5.8234    2.7604 C   0  0  0  0  0  0  0  0  0  0  0  0
    1.2468   -6.8912    2.6618 C   0  0  0  0  0  0  0  0  0  0  0  0
    3.3659   -5.7620    1.7969 C   0  0  1  0  0  0  0  0  0  0  0  0
    3.9271   -7.2819    1.5705 C   0  0  0  0  0  0  0  0  0  0  0  0
    5.5356   -7.0608    1.7397 C   0  0  1  0  0  0  0  0  0  0  0  0
    5.5641   -6.2461    0.7319 C   0  0  0  0  0  0  0  0  0  0  0  0
    4.6562   -6.0332    2.2595 C   0  0  1  0  0  0  0  0  0  0  0  0
    5.8980   -5.5070    2.3618 C   0  0  2  0  0  0  0  0  0  0  0  0
    5.4006   -4.0836    1.9222 C   0  0  0  0  0  0  0  0  0  0  0  0
    3.8721   -4.2591    1.4464 C   0  0  1  0  0  0  0  0  0  0  0  0
    3.6846   -3.9540   -0.0639 C   0  0  0  0  0  0  0  0  0  0  0  0
    4.1289   -2.6379   -0.3731 O   0  0  0  0  0  0  0  0  0  0  0  0
    3.8886   -2.1565   -1.6419 C   0  0  0  0  0  0  0  0  0  0  0  0
    3.1865   -2.8492   -2.6609 C   0  0  0  0  0  0  0  0  0  0  0  0
    3.0148   -2.2357   -3.9112 C   0  0  0  0  0  0  0  0  0  0  0  0
    3.5299   -0.9387   -4.1045 C   0  0  0  0  0  0  0  0  0  0  0  0
    4.2090   -0.2705   -3.1542 N   0  0  0  0  0  0  0  0  0  0  0  0
    4.3681   -0.8707   -1.9536 C   0  0  0  0  0  0  0  0  0  0  0  0
    3.0576   -3.1787    2.2208 C   0  0  0  0  0  0  0  0  0  0  0  0
    2.7895   -3.5649    3.6818 C   0  0  0  0  0  0  0  0  0  0  0  0
   -2.2089   -9.8480    3.2601 H   0  0  0  0  0  0  0  0  0  0  0  0
   -0.9121   -6.0226    5.1575 H   0  0  0  0  0  0  0  0  0  0  0  0
    0.6159   -4.0691    5.2733 H   0  0  0  0  0  0  0  0  0  0  0  0
    1.3773   -7.6562    1.9124 H   0  0  0  0  0  0  0  0  0  0  0  0
    3.5724   -8.0154    2.3167 H   0  0  0  0  0  0  0  0  0  0  0  0
    3.5814   -7.7181    0.6277 H   0  0  0  0  0  0  0  0  0  0  0  0
    6.2751   -7.8665    1.6668 H   0  0  0  0  0  0  0  0  0  0  0  0
    6.5980   -5.9350    0.4431 H   0  0  0  0  0  0  0  0  0  0  0  0
    5.1239   -6.6669   -0.1870 H   0  0  0  0  0  0  0  0  0  0  0  0
    4.6248   -6.2810    3.3903 H   0  0  0  0  0  0  0  0  0  0  0  0
    6.3622   -5.5504    3.3531 H   0  0  0  0  0  0  0  0  0  0  0  0
    5.5070   -3.3891    2.7518 H   0  0  0  0  0  0  0  0  0  0  0  0
    6.0342   -3.6678    1.1310 H   0  0  0  0  0  0  0  0  0  0  0  0
    4.2214   -4.6551   -0.7012 H   0  0  0  0  0  0  0  0  0  0  0  0
    2.6245   -4.0631   -0.2964 H   0  0  0  0  0  0  0  0  0  0  0  0
    2.7762   -3.8388   -2.5099 H   0  0  0  0  0  0  0  0  0  0  0  0
    2.4857   -2.7397   -4.7023 H   0  0  0  0  0  0  0  0  0  0  0  0
    3.4204   -0.4377   -5.0576 H   0  0  0  0  0  0  0  0  0  0  0  0
    4.9104   -0.2930   -1.2250 H   0  0  0  0  0  0  0  0  0  0  0  0
    3.5715   -2.2159    2.1837 H   0  0  0  0  0  0  0  0  0  0  0  0
    2.0974   -3.0096    1.7284 H   0  0  0  0  0  0  0  0  0  0  0  0
    2.2942   -2.7406    4.1973 H   0  0  0  0  0  0  0  0  0  0  0  0
    3.7137   -3.7655    4.2225 H   0  0  0  0  0  0  0  0  0  0  0  0
  1  2  3  0
  1 27  1  0
  2  3  1  0
  3  8  1  0
  3  4  2  0
  4  5  1  0
  4 28  1  0
  5  6  2  0
  5 29  1  0
  6 26  1  0
  6  7  1  0
  7  8  2  0
  9  7  1  1
  8 30  1  0
  9 13  1  0
  9 16  1  0
  9 10  1  0
 10 11  1  0
 10 31  1  0
 10 32  1  0
 11 14  1  0
 11 12  1  0
 11 33  1  6
 12 13  1  0
 12 34  1  0
 12 35  1  0
 13 14  1  0
 13 36  1  1
 14 15  1  0
 14 37  1  1
 15 16  1  0
 15 38  1  0
 15 39  1  0
 16 17  1  6
 16 25  1  0
 17 18  1  0
 17 40  1  0
 17 41  1  0
 18 19  1  0
 19 24  1  0
 19 20  2  0
 20 21  1  0
 20 42  1  0
 21 22  2  0
 21 43  1  0
 22 23  1  0
 22 44  1  0
 23 24  2  0
 24 45  1  0
 25 26  1  0
 25 46  1  0
 25 47  1  0
 26 48  1  0
 26 49  1  0
M  END
>  <i_m_ct_stereo_status>  (339) 
1

>  <s_m_source_file>  (339) 
/var/tmp/pbs.5076255.sched01/tmpay8aiv4m/132fzfu5vr2.sdf

>  <i_m_source_file_index>  (339) 
28

>  <i_lp_mmshare_version>  (339) 
48012

>  <i_f3d_flags>  (339) 
0

>  <s_epik_input>  (339) 
W0NIXSNDYyhbY0hdMSlbY0hdW2NIXWMoYzFDMjM0KVtDSDJdW0NIMl1bQ0BdNChbQ0gyXVtDQEBIXTVbQ0BASF0oW0NIMl0yKVtDSDJdW0NIXTM1KVtDSDJdT2M2W2NIXVtjSF1bY0hdbltjSF02

>  <s_epik_cmdline>  (339) 
J2VwaWtfcHl0aG9uJywgJy1waHQnLCAnMi4wJywgJy1waCcsICc3LjAnLCAnLXRuJywgJzgnLCAnLW1hJywgJzIwMCcsICctaW1hZScsICc8aW5maWxlLm1hZT4nLCAnLW9tYWUnLCAnPG91dGZpbGUubWFlPic=

>  <r_lp_tautomer_probability>  (339) 
1

>  <r_epik_Ionization_Penalty>  (339) 
0.0026093

>  <r_epik_Ionization_Penalty_Charging>  (339) 
0

>  <r_epik_Ionization_Penalty_Neutral>  (339) 
0.0026093

>  <r_epik_State_Penalty>  (339) 
0.0018148

>  <r_epik_Charging_Adjusted_Penalty>  (339) 
0.0018148

>  <i_epik_Tot_Q>  (339) 
0

>  <i_epik_Tot_abs_Q>  (339) 
0

>  <s_lp_Force_Field>  (339) 
OPLS3e

>  <r_lp_Energy>  (339) 
387.819

>  <b_lp_Chiralities_Consistent>  (339) 
1

>  <s_lp_Variant>  (339) 
99:0-1

>  <s_i_glide_gridfile>  (339) 
pfpi4k_grid

>  <i_i_glide_lignum>  (339) 
28

>  <i_i_glide_rotatable_bonds>  (339) 
4

>  <r_i_docking_score>  (339) 
-2.58184

>  <r_i_glide_ligand_efficiency>  (339) 
-0.0993015

>  <r_i_glide_ligand_efficiency_sa>  (339) 
-0.29418

>  <r_i_glide_ligand_efficiency_ln>  (339) 
-0.606336

>  <r_i_glide_gscore>  (339) 
-2.58184

>  <r_i_glide_lipo>  (339) 
-0.577626

>  <r_i_glide_hbond>  (339) 
0

>  <r_i_glide_metal>  (339) 
-0

>  <r_i_glide_rewards>  (339) 
-1.08105

>  <r_i_glide_evdw>  (339) 
-27.731

>  <r_i_glide_ecoul>  (339) 
-1.24521

>  <r_i_glide_erotb>  (339) 
0.650171

>  <r_i_glide_esite>  (339) 
0

>  <r_i_glide_emodel>  (339) 
-33.2789

>  <r_i_glide_energy>  (339) 
-28.9762

>  <r_i_glide_einternal>  (339) 
0.743429

>  <r_i_glide_intrahb_reward>  (339) 
-0

>  <i_i_glide_confnum>  (339) 
4

>  <i_i_glide_posenum>  (339) 
37

>  <r_i_glide_eff_state_penalty>  (339) 
0

>  <ligand_id>  (339) 
99

>  <original_smiles>  (339) 
C#Cc1ccc2c(c1)C13CC4CC1C4CC3(COc1cccnc1)CC2

>  <smiles>  (339) 
[H]C#Cc1c([H])c([H])c2c(c1[H])C13C([H])([H])C4([H])C([H])([H])C1([H])C4([H])C([H])([H])C3(C([H])([H])Oc1c([H])nc([H])c([H])c1[H])C([H])([H])C2([H])[H]

$$$$
100:0:0
     RDKit          3D

 53 58  0  0  1  0  0  0  0  0999 V2000
    2.0923   -6.8756    5.8401 O   0  0  0  0  0  0  0  0  0  0  0  0
    2.0804   -7.7202    4.9405 C   0  0  0  0  0  0  0  0  0  0  0  0
    3.4038   -8.2871    4.4192 C   0  0  0  0  0  0  0  0  0  0  0  0
    3.3701   -8.6854    2.9162 C   0  0  2  0  0  0  0  0  0  0  0  0
    4.7155   -9.2962    2.4606 C   0  0  0  0  0  0  0  0  0  0  0  0
    5.3894   -8.2410    1.5776 C   0  0  0  0  0  0  0  0  0  0  0  0
    4.3971   -7.1914    1.3681 N   0  0  0  0  0  0  0  0  0  0  0  0
    4.6304   -6.1129    0.3864 C   0  0  2  0  0  0  0  0  0  0  0  0
    5.9705   -5.4095    0.6095 C   0  0  0  0  0  0  0  0  0  0  0  0
    5.8446   -4.0631   -0.1229 C   0  0  2  0  0  0  0  0  0  0  0  0
    6.6165   -2.9063    0.5565 C   0  0  0  0  0  0  0  0  0  0  0  0
    5.5302   -2.0436    1.1355 C   0  0  0  0  0  0  0  0  0  0  0  0
    5.7079   -0.9185    1.9528 C   0  0  0  0  0  0  0  0  0  0  0  0
    4.5592   -0.2293    2.3890 C   0  0  0  0  0  0  0  0  0  0  0  0
    3.2665   -0.6578    2.0151 C   0  0  0  0  0  0  0  0  0  0  0  0
    3.1032   -1.8012    1.2061 C   0  0  0  0  0  0  0  0  0  0  0  0
    4.2623   -2.4758    0.7697 C   0  0  0  0  0  0  0  0  0  0  0  0
    4.3420   -3.6985   -0.1079 C   0  0  2  0  0  0  0  0  0  0  0  0
    3.6325   -4.9231    0.4468 C   0  0  0  0  0  0  0  0  0  0  0  0
    3.2609   -7.4392    2.0245 C   0  0  0  0  0  0  0  0  0  0  0  0
    2.2248   -6.7732    1.9388 O   0  0  0  0  0  0  0  0  0  0  0  0
    2.1951   -9.6434    2.6337 C   0  0  0  0  0  0  0  0  0  0  0  0
    0.8752   -9.1186    3.1962 C   0  0  0  0  0  0  0  0  0  0  0  0
   -0.3181   -9.5118    2.5505 C   0  0  0  0  0  0  0  0  0  0  0  0
   -1.5512   -9.0031    2.9893 C   0  0  0  0  0  0  0  0  0  0  0  0
   -1.5949   -8.1003    4.0622 C   0  0  0  0  0  0  0  0  0  0  0  0
   -0.4161   -7.7076    4.7161 C   0  0  0  0  0  0  0  0  0  0  0  0
    0.8348   -8.2098    4.2890 C   0  0  0  0  0  0  0  0  0  0  0  0
    4.1976   -7.5623    4.6032 H   0  0  0  0  0  0  0  0  0  0  0  0
    3.6432   -9.1599    5.0299 H   0  0  0  0  0  0  0  0  0  0  0  0
    5.3692   -9.5689    3.2901 H   0  0  0  0  0  0  0  0  0  0  0  0
    4.5658  -10.2057    1.8774 H   0  0  0  0  0  0  0  0  0  0  0  0
    6.2589   -7.8138    2.0791 H   0  0  0  0  0  0  0  0  0  0  0  0
    5.7298   -8.6667    0.6336 H   0  0  0  0  0  0  0  0  0  0  0  0
    4.6147   -6.5439   -0.6138 H   0  0  0  0  0  0  0  0  0  0  0  0
    6.1070   -5.2516    1.6792 H   0  0  0  0  0  0  0  0  0  0  0  0
    6.8274   -5.9853    0.2586 H   0  0  0  0  0  0  0  0  0  0  0  0
    6.1652   -4.2048   -1.1550 H   0  0  0  0  0  0  0  0  0  0  0  0
    7.3230   -3.2362    1.3211 H   0  0  0  0  0  0  0  0  0  0  0  0
    7.1662   -2.3284   -0.1875 H   0  0  0  0  0  0  0  0  0  0  0  0
    6.7006   -0.5965    2.2165 H   0  0  0  0  0  0  0  0  0  0  0  0
    4.6619    0.6540    2.9975 H   0  0  0  0  0  0  0  0  0  0  0  0
    2.4111   -0.0817    2.3325 H   0  0  0  0  0  0  0  0  0  0  0  0
    2.1160   -2.1300    0.9215 H   0  0  0  0  0  0  0  0  0  0  0  0
    3.9728   -3.4463   -1.1060 H   0  0  0  0  0  0  0  0  0  0  0  0
    2.7047   -5.1301   -0.0904 H   0  0  0  0  0  0  0  0  0  0  0  0
    3.3760   -4.6964    1.4825 H   0  0  0  0  0  0  0  0  0  0  0  0
    2.0922   -9.8364    1.5621 H   0  0  0  0  0  0  0  0  0  0  0  0
    2.3889  -10.6158    3.0832 H   0  0  0  0  0  0  0  0  0  0  0  0
   -0.2855  -10.1965    1.7220 H   0  0  0  0  0  0  0  0  0  0  0  0
   -2.4632   -9.3512    2.5164 H   0  0  0  0  0  0  0  0  0  0  0  0
   -2.5479   -7.7306    4.4013 H   0  0  0  0  0  0  0  0  0  0  0  0
   -0.4820   -7.0206    5.5380 H   0  0  0  0  0  0  0  0  0  0  0  0
  1  2  2  0
  2 28  1  0
  2  3  1  0
  4  3  1  1
  3 29  1  0
  3 30  1  0
  4 20  1  0
  4  5  1  0
  4 22  1  0
  5  6  1  0
  5 31  1  0
  5 32  1  0
  6  7  1  0
  6 33  1  0
  6 34  1  0
  7  8  1  0
  7 20  1  0
  8 19  1  0
  8  9  1  0
  8 35  1  6
  9 10  1  0
  9 36  1  0
  9 37  1  0
 10 18  1  0
 10 11  1  0
 10 38  1  6
 11 12  1  0
 11 39  1  0
 11 40  1  0
 12 17  2  0
 12 13  1  0
 13 14  2  0
 13 41  1  0
 14 15  1  0
 14 42  1  0
 15 16  2  0
 15 43  1  0
 16 17  1  0
 16 44  1  0
 17 18  1  0
 18 19  1  0
 18 45  1  6
 19 46  1  0
 19 47  1  0
 20 21  2  0
 22 23  1  0
 22 48  1  0
 22 49  1  0
 23 28  2  0
 23 24  1  0
 24 25  2  0
 24 50  1  0
 25 26  1  0
 25 51  1  0
 26 27  2  0
 26 52  1  0
 27 28  1  0
 27 53  1  0
M  END
>  <i_m_ct_stereo_status>  (340) 
1

>  <s_m_source_file>  (340) 
/var/tmp/pbs.5076255.sched01/tmpay8aiv4m/132fzfu5vr2.sdf

>  <i_m_source_file_index>  (340) 
29

>  <i_lp_mmshare_version>  (340) 
48012

>  <i_f3d_flags>  (340) 
0

>  <s_epik_input>  (340) 
W2NIXTFbY0hdW2NIXVtjSF1jKFtDSDJdMiljMUMoPU8pW0NIMl1bQ0BAXTIzW0NIMl1bQ0gyXU4oQzM9TylbQ0BIXShbQ0gyXTQpW0NIMl1bQ0BIXShbQ0BIXTQ1KWM2YyhbQ0gyXTUpW2NIXVtjSF1bY0hdW2NIXTY=

>  <s_epik_cmdline>  (340) 
J2VwaWtfcHl0aG9uJywgJy1waHQnLCAnMi4wJywgJy1waCcsICc3LjAnLCAnLXRuJywgJzgnLCAnLW1hJywgJzIwMCcsICctaW1hZScsICc8aW5maWxlLm1hZT4nLCAnLW9tYWUnLCAnPG91dGZpbGUubWFlPic=

>  <r_lp_tautomer_probability>  (340) 
1

>  <r_epik_Ionization_Penalty>  (340) 
2.40746e-08

>  <r_epik_Ionization_Penalty_Charging>  (340) 
0

>  <r_epik_Ionization_Penalty_Neutral>  (340) 
2.40746e-08

>  <r_epik_State_Penalty>  (340) 
-0

>  <r_epik_Charging_Adjusted_Penalty>  (340) 
0

>  <i_epik_Tot_Q>  (340) 
0

>  <i_epik_Tot_abs_Q>  (340) 
0

>  <s_lp_Force_Field>  (340) 
OPLS3e

>  <r_lp_Energy>  (340) 
27.029

>  <b_lp_Chiralities_Consistent>  (340) 
1

>  <s_lp_Variant>  (340) 
100:0-1

>  <s_i_glide_gridfile>  (340) 
pfpi4k_grid

>  <i_i_glide_lignum>  (340) 
29

>  <i_i_glide_rotatable_bonds>  (340) 
1

>  <r_i_docking_score>  (340) 
-3.34152

>  <r_i_glide_ligand_efficiency>  (340) 
-0.11934

>  <r_i_glide_ligand_efficiency_sa>  (340) 
-0.362386

>  <r_i_glide_ligand_efficiency_ln>  (340) 
-0.77132

>  <r_i_glide_gscore>  (340) 
-3.34152

>  <r_i_glide_lipo>  (340) 
-0.826738

>  <r_i_glide_hbond>  (340) 
0

>  <r_i_glide_metal>  (340) 
-0

>  <r_i_glide_rewards>  (340) 
-1.02337

>  <r_i_glide_evdw>  (340) 
-29.4827

>  <r_i_glide_ecoul>  (340) 
-1.02853

>  <r_i_glide_erotb>  (340) 
0.13989

>  <r_i_glide_esite>  (340) 
-0.00288927

>  <r_i_glide_emodel>  (340) 
-33.3379

>  <r_i_glide_energy>  (340) 
-30.5112

>  <r_i_glide_einternal>  (340) 
6.29544

>  <r_i_glide_intrahb_reward>  (340) 
-0

>  <i_i_glide_confnum>  (340) 
6

>  <i_i_glide_posenum>  (340) 
8

>  <r_i_glide_eff_state_penalty>  (340) 
0

>  <ligand_id>  (340) 
100

>  <original_smiles>  (340) 
O=C1CC2(CCN(C3CC4Cc5ccccc5C4C3)C2=O)Cc2ccccc21

>  <smiles>  (340) 
[H]c1c([H])c([H])c2c(c1[H])C(=O)C([H])([H])C1(C(=O)N(C3([H])C([H])([H])C4([H])c5c([H])c([H])c([H])c([H])c5C([H])([H])C4([H])C3([H])[H])C([H])([H])C1([H])[H])C2([H])[H]

$$$$
100:0:1
     RDKit          3D

 53 58  0  0  1  0  0  0  0  0999 V2000
    8.8042   -6.0774    0.0844 O   0  0  0  0  0  0  0  0  0  0  0  0
    7.7852   -5.5881    0.5659 C   0  0  0  0  0  0  0  0  0  0  0  0
    6.6641   -6.4933    1.0849 C   0  0  0  0  0  0  0  0  0  0  0  0
    5.8623   -5.8666    2.2397 C   0  0  2  0  0  0  0  0  0  0  0  0
    6.6896   -5.7994    3.5345 C   0  0  0  0  0  0  0  0  0  0  0  0
    6.0988   -6.8431    4.4728 C   0  0  0  0  0  0  0  0  0  0  0  0
    4.8556   -7.2709    3.8424 N   0  0  0  0  0  0  0  0  0  0  0  0
    3.9581   -8.1746    4.5686 C   0  0  2  0  0  0  0  0  0  0  0  0
    3.6291   -9.4630    3.7924 C   0  0  0  0  0  0  0  0  0  0  0  0
    2.3491   -9.9903    4.4405 C   0  0  2  0  0  0  0  0  0  0  0  0
    1.3887  -10.6689    3.4381 C   0  0  0  0  0  0  0  0  0  0  0  0
    0.2427   -9.7062    3.3302 C   0  0  0  0  0  0  0  0  0  0  0  0
   -0.8679   -9.8318    2.4751 C   0  0  0  0  0  0  0  0  0  0  0  0
   -1.8764   -8.8572    2.5530 C   0  0  0  0  0  0  0  0  0  0  0  0
   -1.7732   -7.7856    3.4609 C   0  0  0  0  0  0  0  0  0  0  0  0
   -0.6492   -7.6577    4.3038 C   0  0  0  0  0  0  0  0  0  0  0  0
    0.3591   -8.6420    4.2106 C   0  0  0  0  0  0  0  0  0  0  0  0
    1.6221   -8.7453    5.0201 C   0  0  2  0  0  0  0  0  0  0  0  0
    2.5827   -7.5512    4.8938 C   0  0  0  0  0  0  0  0  0  0  0  0
    4.6949   -6.7581    2.6149 C   0  0  0  0  0  0  0  0  0  0  0  0
    3.7365   -6.9268    1.8591 O   0  0  0  0  0  0  0  0  0  0  0  0
    5.2889   -4.5045    1.7988 C   0  0  0  0  0  0  0  0  0  0  0  0
    6.3431   -3.6143    1.2119 C   0  0  0  0  0  0  0  0  0  0  0  0
    6.1299   -2.2280    1.2678 C   0  0  0  0  0  0  0  0  0  0  0  0
    7.0865   -1.3594    0.7284 C   0  0  0  0  0  0  0  0  0  0  0  0
    8.2613   -1.8645    0.1569 C   0  0  0  0  0  0  0  0  0  0  0  0
    8.4842   -3.2435    0.0898 C   0  0  0  0  0  0  0  0  0  0  0  0
    7.5280   -4.1357    0.6201 C   0  0  0  0  0  0  0  0  0  0  0  0
    5.9745   -6.6619    0.2594 H   0  0  0  0  0  0  0  0  0  0  0  0
    7.0748   -7.4605    1.3703 H   0  0  0  0  0  0  0  0  0  0  0  0
    7.7544   -5.9786    3.3833 H   0  0  0  0  0  0  0  0  0  0  0  0
    6.5954   -4.8184    3.9902 H   0  0  0  0  0  0  0  0  0  0  0  0
    6.7767   -7.6913    4.5811 H   0  0  0  0  0  0  0  0  0  0  0  0
    5.9415   -6.4146    5.4650 H   0  0  0  0  0  0  0  0  0  0  0  0
    4.4307   -8.4608    5.5133 H   0  0  0  0  0  0  0  0  0  0  0  0
    3.4016   -9.2427    2.7529 H   0  0  0  0  0  0  0  0  0  0  0  0
    4.4467  -10.1855    3.7935 H   0  0  0  0  0  0  0  0  0  0  0  0
    2.6305  -10.6689    5.2468 H   0  0  0  0  0  0  0  0  0  0  0  0
    1.8356  -10.8590    2.4651 H   0  0  0  0  0  0  0  0  0  0  0  0
    1.0264  -11.6193    3.8288 H   0  0  0  0  0  0  0  0  0  0  0  0
   -0.9411  -10.6435    1.7682 H   0  0  0  0  0  0  0  0  0  0  0  0
   -2.7492   -8.9684    1.9208 H   0  0  0  0  0  0  0  0  0  0  0  0
   -2.5723   -7.0590    3.5341 H   0  0  0  0  0  0  0  0  0  0  0  0
   -0.5732   -6.8458    5.0104 H   0  0  0  0  0  0  0  0  0  0  0  0
    1.3479   -8.9178    6.0618 H   0  0  0  0  0  0  0  0  0  0  0  0
    2.5924   -6.9419    5.7998 H   0  0  0  0  0  0  0  0  0  0  0  0
    2.2560   -6.8888    4.0925 H   0  0  0  0  0  0  0  0  0  0  0  0
    4.5369   -4.6511    1.0168 H   0  0  0  0  0  0  0  0  0  0  0  0
    4.7355   -4.0063    2.6097 H   0  0  0  0  0  0  0  0  0  0  0  0
    5.2407   -1.8266    1.7449 H   0  0  0  0  0  0  0  0  0  0  0  0
    6.9144   -0.2973    0.7975 H   0  0  0  0  0  0  0  0  0  0  0  0
    9.0078   -1.1849   -0.2172 H   0  0  0  0  0  0  0  0  0  0  0  0
    9.3961   -3.6017   -0.3597 H   0  0  0  0  0  0  0  0  0  0  0  0
  1  2  2  0
  2 28  1  0
  2  3  1  0
  4  3  1  6
  3 29  1  0
  3 30  1  0
  4 20  1  0
  4  5  1  0
  4 22  1  0
  5  6  1  0
  5 31  1  0
  5 32  1  0
  6  7  1  0
  6 33  1  0
  6 34  1  0
  7  8  1  0
  7 20  1  0
  8 19  1  0
  8  9  1  0
  8 35  1  1
  9 10  1  0
  9 36  1  0
  9 37  1  0
 10 18  1  0
 10 11  1  0
 10 38  1  1
 11 12  1  0
 11 39  1  0
 11 40  1  0
 12 17  2  0
 12 13  1  0
 13 14  2  0
 13 41  1  0
 14 15  1  0
 14 42  1  0
 15 16  2  0
 15 43  1  0
 16 17  1  0
 16 44  1  0
 17 18  1  0
 18 19  1  0
 18 45  1  1
 19 46  1  0
 19 47  1  0
 20 21  2  0
 22 23  1  0
 22 48  1  0
 22 49  1  0
 23 28  2  0
 23 24  1  0
 24 25  2  0
 24 50  1  0
 25 26  1  0
 25 51  1  0
 26 27  2  0
 26 52  1  0
 27 28  1  0
 27 53  1  0
M  END
>  <i_m_ct_stereo_status>  (341) 
1

>  <s_m_source_file>  (341) 
/var/tmp/pbs.5076255.sched01/tmpay8aiv4m/132fzfu5vr2.sdf

>  <i_m_source_file_index>  (341) 
29

>  <i_lp_mmshare_version>  (341) 
48012

>  <i_f3d_flags>  (341) 
0

>  <s_epik_input>  (341) 
W2NIXTFbY0hdW2NIXVtjSF1jKFtDSDJdMiljMUMoPU8pW0NIMl1bQ0BAXTIzW0NIMl1bQ0gyXU4oQzM9TylbQ0BIXShbQ0gyXTQpW0NIMl1bQ0BIXShbQ0BIXTQ1KWM2YyhbQ0gyXTUpW2NIXVtjSF1bY0hdW2NIXTY=

>  <s_epik_cmdline>  (341) 
J2VwaWtfcHl0aG9uJywgJy1waHQnLCAnMi4wJywgJy1waCcsICc3LjAnLCAnLXRuJywgJzgnLCAnLW1hJywgJzIwMCcsICctaW1hZScsICc8aW5maWxlLm1hZT4nLCAnLW9tYWUnLCAnPG91dGZpbGUubWFlPic=

>  <r_lp_tautomer_probability>  (341) 
1

>  <r_epik_Ionization_Penalty>  (341) 
2.40746e-08

>  <r_epik_Ionization_Penalty_Charging>  (341) 
0

>  <r_epik_Ionization_Penalty_Neutral>  (341) 
2.40746e-08

>  <r_epik_State_Penalty>  (341) 
-0

>  <r_epik_Charging_Adjusted_Penalty>  (341) 
0

>  <i_epik_Tot_Q>  (341) 
0

>  <i_epik_Tot_abs_Q>  (341) 
0

>  <s_lp_Force_Field>  (341) 
OPLS3e

>  <r_lp_Energy>  (341) 
27.029

>  <b_lp_Chiralities_Consistent>  (341) 
1

>  <s_lp_Variant>  (341) 
100:0-1

>  <s_i_glide_gridfile>  (341) 
pfpi4k_grid

>  <i_i_glide_lignum>  (341) 
29

>  <i_i_glide_rotatable_bonds>  (341) 
1

>  <r_i_docking_score>  (341) 
-3.23066

>  <r_i_glide_ligand_efficiency>  (341) 
-0.115381

>  <r_i_glide_ligand_efficiency_sa>  (341) 
-0.350364

>  <r_i_glide_ligand_efficiency_ln>  (341) 
-0.745731

>  <r_i_glide_gscore>  (341) 
-3.23066

>  <r_i_glide_lipo>  (341) 
-1.06183

>  <r_i_glide_hbond>  (341) 
0

>  <r_i_glide_metal>  (341) 
-0

>  <r_i_glide_rewards>  (341) 
-0.986399

>  <r_i_glide_evdw>  (341) 
-25.6102

>  <r_i_glide_ecoul>  (341) 
-0.278708

>  <r_i_glide_erotb>  (341) 
0.13989

>  <r_i_glide_esite>  (341) 
0

>  <r_i_glide_emodel>  (341) 
-31.3642

>  <r_i_glide_energy>  (341) 
-25.889

>  <r_i_glide_einternal>  (341) 
0.718359

>  <r_i_glide_intrahb_reward>  (341) 
-0

>  <i_i_glide_confnum>  (341) 
1

>  <i_i_glide_posenum>  (341) 
35

>  <r_i_glide_eff_state_penalty>  (341) 
0

>  <ligand_id>  (341) 
100

>  <original_smiles>  (341) 
O=C1CC2(CCN(C3CC4Cc5ccccc5C4C3)C2=O)Cc2ccccc21

>  <smiles>  (341) 
[H]c1c([H])c([H])c2c(c1[H])C(=O)C([H])([H])C1(C(=O)N(C3([H])C([H])([H])C4([H])c5c([H])c([H])c([H])c([H])c5C([H])([H])C4([H])C3([H])[H])C([H])([H])C1([H])[H])C2([H])[H]

$$$$
100:0:2
     RDKit          3D

 53 58  0  0  1  0  0  0  0  0999 V2000
    4.1843   -2.8619   -2.0996 O   0  0  0  0  0  0  0  0  0  0  0  0
    4.8954   -2.7123   -1.1079 C   0  0  0  0  0  0  0  0  0  0  0  0
    6.1907   -3.5165   -0.9919 C   0  0  0  0  0  0  0  0  0  0  0  0
    6.6116   -3.8595    0.4550 C   0  0  2  0  0  0  0  0  0  0  0  0
    7.9625   -4.6114    0.5303 C   0  0  0  0  0  0  0  0  0  0  0  0
    7.6430   -6.0561    0.9411 C   0  0  0  0  0  0  0  0  0  0  0  0
    6.2391   -6.0447    1.3405 N   0  0  0  0  0  0  0  0  0  0  0  0
    5.5979   -7.2381    1.9163 C   0  0  2  0  0  0  0  0  0  0  0  0
    4.3974   -7.7397    1.0868 C   0  0  0  0  0  0  0  0  0  0  0  0
    3.5871   -8.6029    2.0571 C   0  0  2  0  0  0  0  0  0  0  0  0
    2.0516   -8.5416    1.8325 C   0  0  0  0  0  0  0  0  0  0  0  0
    1.5284   -7.7861    3.0229 C   0  0  0  0  0  0  0  0  0  0  0  0
    0.1954   -7.4135    3.2534 C   0  0  0  0  0  0  0  0  0  0  0  0
   -0.1113   -6.7454    4.4574 C   0  0  0  0  0  0  0  0  0  0  0  0
    0.9082   -6.4583    5.3973 C   0  0  0  0  0  0  0  0  0  0  0  0
    2.2462   -6.8397    5.1480 C   0  0  0  0  0  0  0  0  0  0  0  0
    2.5346   -7.5000    3.9402 C   0  0  0  0  0  0  0  0  0  0  0  0
    3.8702   -8.0373    3.4759 C   0  0  2  0  0  0  0  0  0  0  0  0
    5.0077   -7.0109    3.3327 C   0  0  0  0  0  0  0  0  0  0  0  0
    5.6483   -4.8683    1.0998 C   0  0  0  0  0  0  0  0  0  0  0  0
    4.4735   -4.5987    1.3551 O   0  0  0  0  0  0  0  0  0  0  0  0
    6.6431   -2.5600    1.2782 C   0  0  0  0  0  0  0  0  0  0  0  0
    5.4083   -1.7115    1.1606 C   0  0  0  0  0  0  0  0  0  0  0  0
    5.0601   -0.8861    2.2506 C   0  0  0  0  0  0  0  0  0  0  0  0
    3.8842   -0.1146    2.1993 C   0  0  0  0  0  0  0  0  0  0  0  0
    3.0606   -0.2003    1.0688 C   0  0  0  0  0  0  0  0  0  0  0  0
    3.4135   -1.0456   -0.0046 C   0  0  0  0  0  0  0  0  0  0  0  0
    4.5854   -1.8003    0.0238 C   0  0  0  0  0  0  0  0  0  0  0  0
    6.0329   -4.4281   -1.5594 H   0  0  0  0  0  0  0  0  0  0  0  0
    6.9821   -2.9473   -1.4764 H   0  0  0  0  0  0  0  0  0  0  0  0
    8.5094   -4.5886   -0.4065 H   0  0  0  0  0  0  0  0  0  0  0  0
    8.6184   -4.1791    1.2797 H   0  0  0  0  0  0  0  0  0  0  0  0
    7.7954   -6.7287    0.0969 H   0  0  0  0  0  0  0  0  0  0  0  0
    8.2899   -6.4084    1.7512 H   0  0  0  0  0  0  0  0  0  0  0  0
    6.3326   -8.0461    1.9713 H   0  0  0  0  0  0  0  0  0  0  0  0
    3.7615   -6.9151    0.7773 H   0  0  0  0  0  0  0  0  0  0  0  0
    4.6842   -8.2662    0.1742 H   0  0  0  0  0  0  0  0  0  0  0  0
    3.9615   -9.6263    1.9764 H   0  0  0  0  0  0  0  0  0  0  0  0
    1.7502   -8.0586    0.9009 H   0  0  0  0  0  0  0  0  0  0  0  0
    1.6299   -9.5469    1.8333 H   0  0  0  0  0  0  0  0  0  0  0  0
   -0.5705   -7.6590    2.5330 H   0  0  0  0  0  0  0  0  0  0  0  0
   -1.1270   -6.4610    4.6688 H   0  0  0  0  0  0  0  0  0  0  0  0
    0.6521   -5.9684    6.3218 H   0  0  0  0  0  0  0  0  0  0  0  0
    3.0243   -6.6412    5.8726 H   0  0  0  0  0  0  0  0  0  0  0  0
    4.1754   -8.8398    4.1491 H   0  0  0  0  0  0  0  0  0  0  0  0
    5.7565   -7.1080    4.1189 H   0  0  0  0  0  0  0  0  0  0  0  0
    4.5956   -6.0101    3.4503 H   0  0  0  0  0  0  0  0  0  0  0  0
    6.7054   -2.8042    2.3300 H   0  0  0  0  0  0  0  0  0  0  0  0
    7.5098   -1.9615    0.9851 H   0  0  0  0  0  0  0  0  0  0  0  0
    5.6886   -0.8477    3.1381 H   0  0  0  0  0  0  0  0  0  0  0  0
    3.6326    0.5492    3.0163 H   0  0  0  0  0  0  0  0  0  0  0  0
    2.1748    0.4063    0.9961 H   0  0  0  0  0  0  0  0  0  0  0  0
    2.7848   -1.0937   -0.8828 H   0  0  0  0  0  0  0  0  0  0  0  0
  1  2  2  0
  2 28  1  0
  2  3  1  0
  4  3  1  6
  3 29  1  0
  3 30  1  0
  4 20  1  0
  4  5  1  0
  4 22  1  0
  5  6  1  0
  5 31  1  0
  5 32  1  0
  6  7  1  0
  6 33  1  0
  6 34  1  0
  7  8  1  0
  7 20  1  0
  8 19  1  0
  8  9  1  0
  8 35  1  1
  9 10  1  0
  9 36  1  0
  9 37  1  0
 10 18  1  0
 10 11  1  0
 10 38  1  1
 11 12  1  0
 11 39  1  0
 11 40  1  0
 12 17  2  0
 12 13  1  0
 13 14  2  0
 13 41  1  0
 14 15  1  0
 14 42  1  0
 15 16  2  0
 15 43  1  0
 16 17  1  0
 16 44  1  0
 17 18  1  0
 18 19  1  0
 18 45  1  1
 19 46  1  0
 19 47  1  0
 20 21  2  0
 22 23  1  0
 22 48  1  0
 22 49  1  0
 23 28  2  0
 23 24  1  0
 24 25  2  0
 24 50  1  0
 25 26  1  0
 25 51  1  0
 26 27  2  0
 26 52  1  0
 27 28  1  0
 27 53  1  0
M  END
>  <i_m_ct_stereo_status>  (342) 
1

>  <s_m_source_file>  (342) 
/var/tmp/pbs.5076255.sched01/tmpay8aiv4m/132fzfu5vr2.sdf

>  <i_m_source_file_index>  (342) 
29

>  <i_lp_mmshare_version>  (342) 
48012

>  <i_f3d_flags>  (342) 
0

>  <s_epik_input>  (342) 
W2NIXTFbY0hdW2NIXVtjSF1jKFtDSDJdMiljMUMoPU8pW0NIMl1bQ0BAXTIzW0NIMl1bQ0gyXU4oQzM9TylbQ0BIXShbQ0gyXTQpW0NIMl1bQ0BIXShbQ0BIXTQ1KWM2YyhbQ0gyXTUpW2NIXVtjSF1bY0hdW2NIXTY=

>  <s_epik_cmdline>  (342) 
J2VwaWtfcHl0aG9uJywgJy1waHQnLCAnMi4wJywgJy1waCcsICc3LjAnLCAnLXRuJywgJzgnLCAnLW1hJywgJzIwMCcsICctaW1hZScsICc8aW5maWxlLm1hZT4nLCAnLW9tYWUnLCAnPG91dGZpbGUubWFlPic=

>  <r_lp_tautomer_probability>  (342) 
1

>  <r_epik_Ionization_Penalty>  (342) 
2.40746e-08

>  <r_epik_Ionization_Penalty_Charging>  (342) 
0

>  <r_epik_Ionization_Penalty_Neutral>  (342) 
2.40746e-08

>  <r_epik_State_Penalty>  (342) 
-0

>  <r_epik_Charging_Adjusted_Penalty>  (342) 
0

>  <i_epik_Tot_Q>  (342) 
0

>  <i_epik_Tot_abs_Q>  (342) 
0

>  <s_lp_Force_Field>  (342) 
OPLS3e

>  <r_lp_Energy>  (342) 
27.029

>  <b_lp_Chiralities_Consistent>  (342) 
1

>  <s_lp_Variant>  (342) 
100:0-1

>  <s_i_glide_gridfile>  (342) 
pfpi4k_grid

>  <i_i_glide_lignum>  (342) 
29

>  <i_i_glide_rotatable_bonds>  (342) 
1

>  <r_i_docking_score>  (342) 
-2.88265

>  <r_i_glide_ligand_efficiency>  (342) 
-0.102952

>  <r_i_glide_ligand_efficiency_sa>  (342) 
-0.312622

>  <r_i_glide_ligand_efficiency_ln>  (342) 
-0.6654

>  <r_i_glide_gscore>  (342) 
-2.88265

>  <r_i_glide_lipo>  (342) 
-0.798177

>  <r_i_glide_hbond>  (342) 
0

>  <r_i_glide_metal>  (342) 
-0

>  <r_i_glide_rewards>  (342) 
-1.10089

>  <r_i_glide_evdw>  (342) 
-25.4789

>  <r_i_glide_ecoul>  (342) 
1.04183

>  <r_i_glide_erotb>  (342) 
0.13989

>  <r_i_glide_esite>  (342) 
-0.00580233

>  <r_i_glide_emodel>  (342) 
-29.2906

>  <r_i_glide_energy>  (342) 
-24.437

>  <r_i_glide_einternal>  (342) 
0.090542

>  <r_i_glide_intrahb_reward>  (342) 
-0

>  <i_i_glide_confnum>  (342) 
4

>  <i_i_glide_posenum>  (342) 
28

>  <r_i_glide_eff_state_penalty>  (342) 
0

>  <ligand_id>  (342) 
100

>  <original_smiles>  (342) 
O=C1CC2(CCN(C3CC4Cc5ccccc5C4C3)C2=O)Cc2ccccc21

>  <smiles>  (342) 
[H]c1c([H])c([H])c2c(c1[H])C(=O)C([H])([H])C1(C(=O)N(C3([H])C([H])([H])C4([H])c5c([H])c([H])c([H])c([H])c5C([H])([H])C4([H])C3([H])[H])C([H])([H])C1([H])[H])C2([H])[H]

$$$$
101:0:0
     RDKit          3D

 63 67  0  0  1  0  0  0  0  0999 V2000
    5.2300   -4.2150   -0.4125 C   0  0  0  0  0  0  0  0  0  0  0  0
    4.8557   -3.0716    0.1848 C   0  0  0  0  0  0  0  0  0  0  0  0
    5.2826   -1.6921   -0.2312 C   0  0  0  0  0  0  0  0  0  0  0  0
    5.2815   -0.8834    1.0778 C   0  0  0  0  0  0  0  0  0  0  0  0
    4.9392   -1.8819    2.2220 C   0  0  2  0  0  0  0  0  0  0  0  0
    4.1313   -2.9682    1.4970 C   0  0  1  0  0  0  0  0  0  0  0  0
    2.6820   -2.5068    1.2934 C   0  0  0  0  0  0  0  0  0  0  0  0
    2.0108   -2.2326    2.6372 C   0  0  0  0  0  0  0  0  0  0  0  0
    2.7607   -1.2238    3.5414 C   0  0  2  0  0  0  0  0  0  0  0  0
    2.1902    0.2156    3.5716 C   0  0  2  0  0  0  0  0  0  0  0  0
    2.3971    1.0840    2.3209 C   0  0  0  0  0  0  0  0  0  0  0  0
    1.6677    2.4182    2.4784 C   0  0  0  0  0  0  0  0  0  0  0  0
    2.1164    3.2144    3.7243 C   0  0  1  0  0  0  0  0  0  0  0  0
    1.3706    4.5675    3.8348 C   0  0  0  0  0  0  0  0  0  0  0  0
   -0.0911    4.4668    4.3145 C   0  0  1  0  0  0  0  0  0  0  0  0
   -0.9620    4.0509    3.2822 O   0  0  0  0  0  0  0  0  0  0  0  0
   -0.2586    3.5437    5.5380 C   0  0  0  0  0  0  0  0  0  0  0  0
    0.4995    2.2085    5.3881 C   0  0  0  0  0  0  0  0  0  0  0  0
    2.0103    2.3668    5.0357 C   0  0  2  0  0  0  0  0  0  0  0  0
    2.7095    3.0958    6.2183 C   0  0  0  0  0  0  0  0  0  0  0  0
    2.6847    0.9522    4.8396 C   0  0  2  0  0  0  0  0  0  0  0  0
    4.2395    0.9430    4.9207 C   0  0  0  0  0  0  0  0  0  0  0  0
    5.0071   -0.0364    3.9981 C   0  0  0  0  0  0  0  0  0  0  0  0
    4.3184   -1.3711    3.5777 C   0  0  2  0  0  0  0  0  0  0  0  0
    4.6586   -2.4348    4.6576 C   0  0  0  0  0  0  0  0  0  0  0  0
    4.9540   -5.1739   -0.0036 H   0  0  0  0  0  0  0  0  0  0  0  0
    5.8240   -4.1899   -1.3132 H   0  0  0  0  0  0  0  0  0  0  0  0
    6.2539   -1.7058   -0.7232 H   0  0  0  0  0  0  0  0  0  0  0  0
    4.5490   -1.2838   -0.9297 H   0  0  0  0  0  0  0  0  0  0  0  0
    6.2410   -0.3997    1.2504 H   0  0  0  0  0  0  0  0  0  0  0  0
    4.5321   -0.1024    0.9851 H   0  0  0  0  0  0  0  0  0  0  0  0
    5.8974   -2.3406    2.4724 H   0  0  0  0  0  0  0  0  0  0  0  0
    4.1510   -3.9214    2.0275 H   0  0  0  0  0  0  0  0  0  0  0  0
    2.6276   -1.6076    0.6787 H   0  0  0  0  0  0  0  0  0  0  0  0
    2.1269   -3.2707    0.7467 H   0  0  0  0  0  0  0  0  0  0  0  0
    0.9876   -1.8961    2.4730 H   0  0  0  0  0  0  0  0  0  0  0  0
    1.9279   -3.1826    3.1685 H   0  0  0  0  0  0  0  0  0  0  0  0
    2.4296   -1.5613    4.5250 H   0  0  0  0  0  0  0  0  0  0  0  0
    1.1145    0.0869    3.6673 H   0  0  0  0  0  0  0  0  0  0  0  0
    3.4440    1.3130    2.1536 H   0  0  0  0  0  0  0  0  0  0  0  0
    2.0328    0.5683    1.4322 H   0  0  0  0  0  0  0  0  0  0  0  0
    1.8404    3.0221    1.5880 H   0  0  0  0  0  0  0  0  0  0  0  0
    0.5987    2.2205    2.4909 H   0  0  0  0  0  0  0  0  0  0  0  0
    3.1690    3.4558    3.5626 H   0  0  0  0  0  0  0  0  0  0  0  0
    1.9080    5.1997    4.5385 H   0  0  0  0  0  0  0  0  0  0  0  0
    1.4153    5.1093    2.8886 H   0  0  0  0  0  0  0  0  0  0  0  0
   -0.4242    5.4658    4.5947 H   0  0  0  0  0  0  0  0  0  0  0  0
   -0.5337    4.1538    2.4263 H   0  0  0  0  0  0  0  0  0  0  0  0
    0.0793    4.0604    6.4344 H   0  0  0  0  0  0  0  0  0  0  0  0
   -1.3177    3.3476    5.7108 H   0  0  0  0  0  0  0  0  0  0  0  0
    0.3882    1.6207    6.3019 H   0  0  0  0  0  0  0  0  0  0  0  0
   -0.0158    1.6464    4.6128 H   0  0  0  0  0  0  0  0  0  0  0  0
    2.7033    2.4754    7.1177 H   0  0  0  0  0  0  0  0  0  0  0  0
    2.2351    4.0397    6.4785 H   0  0  0  0  0  0  0  0  0  0  0  0
    3.7447    3.3543    6.0001 H   0  0  0  0  0  0  0  0  0  0  0  0
    2.3608    0.3510    5.6906 H   0  0  0  0  0  0  0  0  0  0  0  0
    4.6143    1.9320    4.6674 H   0  0  0  0  0  0  0  0  0  0  0  0
    4.5436    0.7796    5.9557 H   0  0  0  0  0  0  0  0  0  0  0  0
    5.2535    0.5444    3.1168 H   0  0  0  0  0  0  0  0  0  0  0  0
    5.9797   -0.2499    4.4426 H   0  0  0  0  0  0  0  0  0  0  0  0
    4.3422   -2.1218    5.6527 H   0  0  0  0  0  0  0  0  0  0  0  0
    5.7279   -2.6329    4.7214 H   0  0  0  0  0  0  0  0  0  0  0  0
    4.1754   -3.3896    4.4531 H   0  0  0  0  0  0  0  0  0  0  0  0
  1  2  2  0
  1 26  1  0
  1 27  1  0
  2  6  1  0
  2  3  1  0
  3  4  1  0
  3 28  1  0
  3 29  1  0
  4  5  1  0
  4 30  1  0
  4 31  1  0
  5 24  1  0
  5  6  1  0
  5 32  1  1
  6  7  1  0
  6 33  1  1
  7  8  1  0
  7 34  1  0
  7 35  1  0
  8  9  1  0
  8 36  1  0
  8 37  1  0
  9 24  1  0
  9 10  1  0
  9 38  1  1
 10 21  1  0
 10 11  1  0
 10 39  1  1
 11 12  1  0
 11 40  1  0
 11 41  1  0
 12 13  1  0
 12 42  1  0
 12 43  1  0
 13 19  1  0
 13 14  1  0
 13 44  1  6
 14 15  1  0
 14 45  1  0
 14 46  1  0
 15 16  1  0
 15 17  1  0
 15 47  1  1
 16 48  1  0
 17 18  1  0
 17 49  1  0
 17 50  1  0
 18 19  1  0
 18 51  1  0
 18 52  1  0
 19 20  1  1
 19 21  1  0
 20 53  1  0
 20 54  1  0
 20 55  1  0
 21 22  1  0
 21 56  1  1
 22 23  1  0
 22 57  1  0
 22 58  1  0
 23 24  1  0
 23 59  1  0
 23 60  1  0
 24 25  1  1
 25 61  1  0
 25 62  1  0
 25 63  1  0
M  END
>  <i_m_ct_stereo_status>  (343) 
1

>  <s_m_source_file>  (343) 
/var/tmp/pbs.5076255.sched01/tmpay8aiv4m/132fzfu5vr2.sdf

>  <i_m_source_file_index>  (343) 
30

>  <i_lp_mmshare_version>  (343) 
48012

>  <i_f3d_flags>  (343) 
0

>  <s_epik_input>  (343) 
W0NIMl0xW0NIMl1DKD1bQ0gyXSlbQ0BIXShbQ0gyXVtDSDJdMilbQ0BASF0xW0NAQF0oW0NIM10pKFtDSDJdW0NIMl1bQ0BIXTM0KVtDQEhdMltDQEBIXTNbQ0gyXVtDSDJdW0NASF0oW0NAXTQ1W0NIM10pW0NIMl1bQ0BASF0oW09IXSlbQ0gyXVtDSDJdNQ==

>  <s_epik_cmdline>  (343) 
J2VwaWtfcHl0aG9uJywgJy1waHQnLCAnMi4wJywgJy1waCcsICc3LjAnLCAnLXRuJywgJzgnLCAnLW1hJywgJzIwMCcsICctaW1hZScsICc8aW5maWxlLm1hZT4nLCAnLW9tYWUnLCAnPG91dGZpbGUubWFlPic=

>  <r_lp_tautomer_probability>  (343) 
1

>  <r_epik_Ionization_Penalty>  (343) 
3.40594e-06

>  <r_epik_Ionization_Penalty_Charging>  (343) 
0

>  <r_epik_Ionization_Penalty_Neutral>  (343) 
3.40594e-06

>  <r_epik_State_Penalty>  (343) 
-0

>  <r_epik_Charging_Adjusted_Penalty>  (343) 
0

>  <i_epik_Tot_Q>  (343) 
0

>  <i_epik_Tot_abs_Q>  (343) 
0

>  <s_lp_Force_Field>  (343) 
OPLS3e

>  <r_lp_Energy>  (343) 
70.825

>  <b_lp_Chiralities_Consistent>  (343) 
1

>  <s_lp_Variant>  (343) 
101:0-1

>  <s_i_glide_gridfile>  (343) 
pfpi4k_grid

>  <i_i_glide_lignum>  (343) 
30

>  <i_i_glide_rotatable_bonds>  (343) 
1

>  <r_i_docking_score>  (343) 
-3.48539

>  <r_i_glide_ligand_efficiency>  (343) 
-0.139416

>  <r_i_glide_ligand_efficiency_sa>  (343) 
-0.407654

>  <r_i_glide_ligand_efficiency_ln>  (343) 
-0.826142

>  <r_i_glide_gscore>  (343) 
-3.48539

>  <r_i_glide_lipo>  (343) 
-0.427235

>  <r_i_glide_hbond>  (343) 
-0.16

>  <r_i_glide_metal>  (343) 
-0

>  <r_i_glide_rewards>  (343) 
-1.07347

>  <r_i_glide_evdw>  (343) 
-24.5509

>  <r_i_glide_ecoul>  (343) 
-3.98096

>  <r_i_glide_erotb>  (343) 
0

>  <r_i_glide_esite>  (343) 
0

>  <r_i_glide_emodel>  (343) 
-34.1905

>  <r_i_glide_energy>  (343) 
-28.5318

>  <r_i_glide_einternal>  (343) 
1.26391

>  <r_i_glide_intrahb_reward>  (343) 
-0

>  <i_i_glide_confnum>  (343) 
1

>  <i_i_glide_posenum>  (343) 
7

>  <r_i_glide_eff_state_penalty>  (343) 
0

>  <ligand_id>  (343) 
101

>  <original_smiles>  (343) 
C=C1CCC2C1CCC1C3CCC4CC(O)CCC4(C)C3CCC21C

>  <smiles>  (343) 
[H]OC1([H])C([H])([H])C([H])([H])C2(C([H])([H])[H])C([H])(C([H])([H])C([H])([H])C3([H])C2([H])C([H])([H])C([H])([H])C2(C([H])([H])[H])C4([H])C([H])([H])C([H])([H])C(=C([H])[H])C4([H])C([H])([H])C([H])([H])C32[H])C1([H])[H]

$$$$
101:0:1
     RDKit          3D

 63 67  0  0  1  0  0  0  0  0999 V2000
    5.4265   -3.8392   -0.3199 C   0  0  0  0  0  0  0  0  0  0  0  0
    4.7864   -2.8218    0.2745 C   0  0  0  0  0  0  0  0  0  0  0  0
    4.7715   -1.3969   -0.2090 C   0  0  0  0  0  0  0  0  0  0  0  0
    4.6348   -0.5635    1.0767 C   0  0  0  0  0  0  0  0  0  0  0  0
    4.6662   -1.5595    2.2694 C   0  0  2  0  0  0  0  0  0  0  0  0
    4.1501   -2.8613    1.6388 C   0  0  1  0  0  0  0  0  0  0  0  0
    2.6154   -2.8348    1.5403 C   0  0  0  0  0  0  0  0  0  0  0  0
    1.9890   -2.6903    2.9250 C   0  0  0  0  0  0  0  0  0  0  0  0
    2.4824   -1.4730    3.7403 C   0  0  2  0  0  0  0  0  0  0  0  0
    1.5352   -0.2446    3.7705 C   0  0  2  0  0  0  0  0  0  0  0  0
    1.4056    0.5877    2.4854 C   0  0  0  0  0  0  0  0  0  0  0  0
    0.3308    1.6626    2.6544 C   0  0  0  0  0  0  0  0  0  0  0  0
    0.6197    2.6101    3.8495 C   0  0  1  0  0  0  0  0  0  0  0  0
   -0.4641    3.7121    3.9967 C   0  0  0  0  0  0  0  0  0  0  0  0
   -1.7988    3.2376    4.6071 C   0  0  1  0  0  0  0  0  0  0  0  0
   -2.5851    2.5768    3.6456 O   0  0  0  0  0  0  0  0  0  0  0  0
   -1.6137    2.3505    5.8500 C   0  0  0  0  0  0  0  0  0  0  0  0
   -0.5234    1.2723    5.6664 C   0  0  0  0  0  0  0  0  0  0  0  0
    0.8526    1.8346    5.1877 C   0  0  2  0  0  0  0  0  0  0  0  0
    1.3972    2.7831    6.2940 C   0  0  0  0  0  0  0  0  0  0  0  0
    1.8872    0.6615    4.9749 C   0  0  2  0  0  0  0  0  0  0  0  0
    3.3853    1.0869    4.9398 C   0  0  0  0  0  0  0  0  0  0  0  0
    4.3298    0.3127    3.9880 C   0  0  0  0  0  0  0  0  0  0  0  0
    4.0188   -1.1759    3.6571 C   0  0  2  0  0  0  0  0  0  0  0  0
    4.7141   -2.0511    4.7357 C   0  0  0  0  0  0  0  0  0  0  0  0
    5.4572   -4.8172    0.1359 H   0  0  0  0  0  0  0  0  0  0  0  0
    5.9285   -3.6939   -1.2648 H   0  0  0  0  0  0  0  0  0  0  0  0
    5.6705   -1.1552   -0.7758 H   0  0  0  0  0  0  0  0  0  0  0  0
    3.9053   -1.2421   -0.8560 H   0  0  0  0  0  0  0  0  0  0  0  0
    5.4364    0.1689    1.1541 H   0  0  0  0  0  0  0  0  0  0  0  0
    3.6939   -0.0228    1.0228 H   0  0  0  0  0  0  0  0  0  0  0  0
    5.7308   -1.7182    2.4565 H   0  0  0  0  0  0  0  0  0  0  0  0
    4.4740   -3.7429    2.1924 H   0  0  0  0  0  0  0  0  0  0  0  0
    2.2731   -2.0145    0.9077 H   0  0  0  0  0  0  0  0  0  0  0  0
    2.2576   -3.7484    1.0663 H   0  0  0  0  0  0  0  0  0  0  0  0
    0.9030   -2.6648    2.8423 H   0  0  0  0  0  0  0  0  0  0  0  0
    2.2172   -3.5986    3.4854 H   0  0  0  0  0  0  0  0  0  0  0  0
    2.3279   -1.8413    4.7563 H   0  0  0  0  0  0  0  0  0  0  0  0
    0.5481   -0.6661    3.9558 H   0  0  0  0  0  0  0  0  0  0  0  0
    2.3326    1.0934    2.2316 H   0  0  0  0  0  0  0  0  0  0  0  0
    1.1484   -0.0529    1.6416 H   0  0  0  0  0  0  0  0  0  0  0  0
    0.2714    2.2339    1.7295 H   0  0  0  0  0  0  0  0  0  0  0  0
   -0.6302    1.1662    2.7613 H   0  0  0  0  0  0  0  0  0  0  0  0
    1.5476    3.1289    3.5992 H   0  0  0  0  0  0  0  0  0  0  0  0
   -0.0663    4.5018    4.6327 H   0  0  0  0  0  0  0  0  0  0  0  0
   -0.6405    4.1937    3.0353 H   0  0  0  0  0  0  0  0  0  0  0  0
   -2.3815    4.1139    4.8959 H   0  0  0  0  0  0  0  0  0  0  0  0
   -2.1048    1.8341    3.3088 H   0  0  0  0  0  0  0  0  0  0  0  0
   -1.3722    2.9795    6.7061 H   0  0  0  0  0  0  0  0  0  0  0  0
   -2.5623    1.8777    6.1087 H   0  0  0  0  0  0  0  0  0  0  0  0
   -0.3966    0.7239    6.6012 H   0  0  0  0  0  0  0  0  0  0  0  0
   -0.9102    0.5496    4.9516 H   0  0  0  0  0  0  0  0  0  0  0  0
    1.6289    2.2306    7.2067 H   0  0  0  0  0  0  0  0  0  0  0  0
    0.6973    3.5694    6.5683 H   0  0  0  0  0  0  0  0  0  0  0  0
    2.3008    3.3095    5.9890 H   0  0  0  0  0  0  0  0  0  0  0  0
    1.8047    0.0334    5.8636 H   0  0  0  0  0  0  0  0  0  0  0  0
    3.4628    2.1283    4.6295 H   0  0  0  0  0  0  0  0  0  0  0  0
    3.7891    1.0626    5.9525 H   0  0  0  0  0  0  0  0  0  0  0  0
    4.3282    0.8957    3.0739 H   0  0  0  0  0  0  0  0  0  0  0  0
    5.3533    0.4055    4.3529 H   0  0  0  0  0  0  0  0  0  0  0  0
    4.3903   -1.7912    5.7427 H   0  0  0  0  0  0  0  0  0  0  0  0
    5.7979   -1.9378    4.7207 H   0  0  0  0  0  0  0  0  0  0  0  0
    4.5085   -3.1115    4.5936 H   0  0  0  0  0  0  0  0  0  0  0  0
  1  2  2  0
  1 26  1  0
  1 27  1  0
  2  6  1  0
  2  3  1  0
  3  4  1  0
  3 28  1  0
  3 29  1  0
  4  5  1  0
  4 30  1  0
  4 31  1  0
  5 24  1  0
  5  6  1  0
  5 32  1  1
  6  7  1  0
  6 33  1  1
  7  8  1  0
  7 34  1  0
  7 35  1  0
  8  9  1  0
  8 36  1  0
  8 37  1  0
  9 24  1  0
  9 10  1  0
  9 38  1  1
 10 21  1  0
 10 11  1  0
 10 39  1  1
 11 12  1  0
 11 40  1  0
 11 41  1  0
 12 13  1  0
 12 42  1  0
 12 43  1  0
 13 19  1  0
 13 14  1  0
 13 44  1  6
 14 15  1  0
 14 45  1  0
 14 46  1  0
 15 16  1  0
 15 17  1  0
 15 47  1  1
 16 48  1  0
 17 18  1  0
 17 49  1  0
 17 50  1  0
 18 19  1  0
 18 51  1  0
 18 52  1  0
 19 20  1  1
 19 21  1  0
 20 53  1  0
 20 54  1  0
 20 55  1  0
 21 22  1  0
 21 56  1  1
 22 23  1  0
 22 57  1  0
 22 58  1  0
 23 24  1  0
 23 59  1  0
 23 60  1  0
 24 25  1  1
 25 61  1  0
 25 62  1  0
 25 63  1  0
M  END
>  <i_m_ct_stereo_status>  (344) 
1

>  <s_m_source_file>  (344) 
/var/tmp/pbs.5076255.sched01/tmpay8aiv4m/132fzfu5vr2.sdf

>  <i_m_source_file_index>  (344) 
30

>  <i_lp_mmshare_version>  (344) 
48012

>  <i_f3d_flags>  (344) 
0

>  <s_epik_input>  (344) 
W0NIMl0xW0NIMl1DKD1bQ0gyXSlbQ0BIXShbQ0gyXVtDSDJdMilbQ0BASF0xW0NAQF0oW0NIM10pKFtDSDJdW0NIMl1bQ0BIXTM0KVtDQEhdMltDQEBIXTNbQ0gyXVtDSDJdW0NASF0oW0NAXTQ1W0NIM10pW0NIMl1bQ0BASF0oW09IXSlbQ0gyXVtDSDJdNQ==

>  <s_epik_cmdline>  (344) 
J2VwaWtfcHl0aG9uJywgJy1waHQnLCAnMi4wJywgJy1waCcsICc3LjAnLCAnLXRuJywgJzgnLCAnLW1hJywgJzIwMCcsICctaW1hZScsICc8aW5maWxlLm1hZT4nLCAnLW9tYWUnLCAnPG91dGZpbGUubWFlPic=

>  <r_lp_tautomer_probability>  (344) 
1

>  <r_epik_Ionization_Penalty>  (344) 
3.40594e-06

>  <r_epik_Ionization_Penalty_Charging>  (344) 
0

>  <r_epik_Ionization_Penalty_Neutral>  (344) 
3.40594e-06

>  <r_epik_State_Penalty>  (344) 
-0

>  <r_epik_Charging_Adjusted_Penalty>  (344) 
0

>  <i_epik_Tot_Q>  (344) 
0

>  <i_epik_Tot_abs_Q>  (344) 
0

>  <s_lp_Force_Field>  (344) 
OPLS3e

>  <r_lp_Energy>  (344) 
70.825

>  <b_lp_Chiralities_Consistent>  (344) 
1

>  <s_lp_Variant>  (344) 
101:0-1

>  <s_i_glide_gridfile>  (344) 
pfpi4k_grid

>  <i_i_glide_lignum>  (344) 
30

>  <i_i_glide_rotatable_bonds>  (344) 
1

>  <r_i_docking_score>  (344) 
-2.70585

>  <r_i_glide_ligand_efficiency>  (344) 
-0.108234

>  <r_i_glide_ligand_efficiency_sa>  (344) 
-0.316478

>  <r_i_glide_ligand_efficiency_ln>  (344) 
-0.641367

>  <r_i_glide_gscore>  (344) 
-2.70585

>  <r_i_glide_lipo>  (344) 
-0.310725

>  <r_i_glide_hbond>  (344) 
0

>  <r_i_glide_metal>  (344) 
-0

>  <r_i_glide_rewards>  (344) 
-1.07347

>  <r_i_glide_evdw>  (344) 
-25.3684

>  <r_i_glide_ecoul>  (344) 
-0.354885

>  <r_i_glide_erotb>  (344) 
0

>  <r_i_glide_esite>  (344) 
0

>  <r_i_glide_emodel>  (344) 
-30.6846

>  <r_i_glide_energy>  (344) 
-25.7233

>  <r_i_glide_einternal>  (344) 
0.0172484

>  <r_i_glide_intrahb_reward>  (344) 
-0

>  <i_i_glide_confnum>  (344) 
1

>  <i_i_glide_posenum>  (344) 
1

>  <r_i_glide_eff_state_penalty>  (344) 
0

>  <ligand_id>  (344) 
101

>  <original_smiles>  (344) 
C=C1CCC2C1CCC1C3CCC4CC(O)CCC4(C)C3CCC21C

>  <smiles>  (344) 
[H]OC1([H])C([H])([H])C([H])([H])C2(C([H])([H])[H])C([H])(C([H])([H])C([H])([H])C3([H])C2([H])C([H])([H])C([H])([H])C2(C([H])([H])[H])C4([H])C([H])([H])C([H])([H])C(=C([H])[H])C4([H])C([H])([H])C([H])([H])C32[H])C1([H])[H]

$$$$
101:0:2
     RDKit          3D

 63 67  0  0  1  0  0  0  0  0999 V2000
    1.0863  -11.4189    3.4905 C   0  0  0  0  0  0  0  0  0  0  0  0
    1.3985  -10.1179    3.5672 C   0  0  0  0  0  0  0  0  0  0  0  0
    2.6630   -9.4911    3.0403 C   0  0  0  0  0  0  0  0  0  0  0  0
    2.9217   -8.3069    3.9902 C   0  0  0  0  0  0  0  0  0  0  0  0
    1.8234   -8.3617    5.0885 C   0  0  2  0  0  0  0  0  0  0  0  0
    0.6660   -9.0847    4.3816 C   0  0  1  0  0  0  0  0  0  0  0  0
   -0.1096   -8.1087    3.4827 C   0  0  0  0  0  0  0  0  0  0  0  0
   -0.6879   -6.9673    4.3149 C   0  0  0  0  0  0  0  0  0  0  0  0
    0.3402   -6.1915    5.1730 C   0  0  2  0  0  0  0  0  0  0  0  0
    0.8133   -4.8260    4.6052 C   0  0  2  0  0  0  0  0  0  0  0  0
    1.7485   -4.8433    3.3845 C   0  0  0  0  0  0  0  0  0  0  0  0
    2.0006   -3.4196    2.8810 C   0  0  0  0  0  0  0  0  0  0  0  0
    2.5948   -2.4918    3.9664 C   0  0  1  0  0  0  0  0  0  0  0  0
    2.8544   -1.0594    3.4223 C   0  0  0  0  0  0  0  0  0  0  0  0
    1.5925   -0.1829    3.2579 C   0  0  1  0  0  0  0  0  0  0  0  0
    0.8727   -0.5392    2.0974 O   0  0  0  0  0  0  0  0  0  0  0  0
    0.6611   -0.2489    4.4838 C   0  0  0  0  0  0  0  0  0  0  0  0
    0.4288   -1.6893    4.9927 C   0  0  0  0  0  0  0  0  0  0  0  0
    1.7423   -2.4835    5.2774 C   0  0  2  0  0  0  0  0  0  0  0  0
    2.5055   -1.7635    6.4255 C   0  0  0  0  0  0  0  0  0  0  0  0
    1.4115   -3.9588    5.7377 C   0  0  2  0  0  0  0  0  0  0  0  0
    2.5683   -4.7088    6.4641 C   0  0  0  0  0  0  0  0  0  0  0  0
    2.7035   -6.2335    6.2200 C   0  0  0  0  0  0  0  0  0  0  0  0
    1.4250   -7.0631    5.8934 C   0  0  2  0  0  0  0  0  0  0  0  0
    0.8159   -7.5366    7.2427 C   0  0  0  0  0  0  0  0  0  0  0  0
    0.2088  -11.8087    3.9800 H   0  0  0  0  0  0  0  0  0  0  0  0
    1.7228  -12.1061    2.9541 H   0  0  0  0  0  0  0  0  0  0  0  0
    3.4870  -10.2065    3.0192 H   0  0  0  0  0  0  0  0  0  0  0  0
    2.4937   -9.1385    2.0213 H   0  0  0  0  0  0  0  0  0  0  0  0
    3.9215   -8.3564    4.4230 H   0  0  0  0  0  0  0  0  0  0  0  0
    2.8633   -7.3937    3.4060 H   0  0  0  0  0  0  0  0  0  0  0  0
    2.2166   -9.0714    5.8211 H   0  0  0  0  0  0  0  0  0  0  0  0
   -0.0121   -9.5638    5.0911 H   0  0  0  0  0  0  0  0  0  0  0  0
    0.5288   -7.6964    2.6997 H   0  0  0  0  0  0  0  0  0  0  0  0
   -0.9140   -8.6363    2.9693 H   0  0  0  0  0  0  0  0  0  0  0  0
   -1.2362   -6.2780    3.6781 H   0  0  0  0  0  0  0  0  0  0  0  0
   -1.4396   -7.4041    4.9735 H   0  0  0  0  0  0  0  0  0  0  0  0
   -0.3057   -5.8358    5.9775 H   0  0  0  0  0  0  0  0  0  0  0  0
   -0.1021   -4.3357    4.2786 H   0  0  0  0  0  0  0  0  0  0  0  0
    2.7134   -5.2790    3.6234 H   0  0  0  0  0  0  0  0  0  0  0  0
    1.3156   -5.4465    2.5875 H   0  0  0  0  0  0  0  0  0  0  0  0
    2.6715   -3.4559    2.0218 H   0  0  0  0  0  0  0  0  0  0  0  0
    1.0604   -3.0193    2.5099 H   0  0  0  0  0  0  0  0  0  0  0  0
    3.5729   -2.9106    4.2107 H   0  0  0  0  0  0  0  0  0  0  0  0
    3.5278   -0.5488    4.1101 H   0  0  0  0  0  0  0  0  0  0  0  0
    3.4022   -1.1059    2.4816 H   0  0  0  0  0  0  0  0  0  0  0  0
    1.8998    0.8551    3.1160 H   0  0  0  0  0  0  0  0  0  0  0  0
    1.3838   -0.3455    1.3217 H   0  0  0  0  0  0  0  0  0  0  0  0
    1.0711    0.3648    5.2845 H   0  0  0  0  0  0  0  0  0  0  0  0
   -0.2974    0.2129    4.2388 H   0  0  0  0  0  0  0  0  0  0  0  0
   -0.1922   -1.6600    5.8878 H   0  0  0  0  0  0  0  0  0  0  0  0
   -0.1711   -2.1932    4.2378 H   0  0  0  0  0  0  0  0  0  0  0  0
    1.9492   -1.8163    7.3625 H   0  0  0  0  0  0  0  0  0  0  0  0
    2.6907   -0.7103    6.2243 H   0  0  0  0  0  0  0  0  0  0  0  0
    3.4916   -2.1896    6.6038 H   0  0  0  0  0  0  0  0  0  0  0  0
    0.6294   -3.8617    6.4929 H   0  0  0  0  0  0  0  0  0  0  0  0
    3.5255   -4.2878    6.1603 H   0  0  0  0  0  0  0  0  0  0  0  0
    2.5019   -4.5134    7.5350 H   0  0  0  0  0  0  0  0  0  0  0  0
    3.4178   -6.3218    5.4078 H   0  0  0  0  0  0  0  0  0  0  0  0
    3.2281   -6.6810    7.0650 H   0  0  0  0  0  0  0  0  0  0  0  0
    0.5874   -6.6994    7.9023 H   0  0  0  0  0  0  0  0  0  0  0  0
    1.4953   -8.1895    7.7928 H   0  0  0  0  0  0  0  0  0  0  0  0
   -0.1072   -8.0977    7.0977 H   0  0  0  0  0  0  0  0  0  0  0  0
  1  2  2  0
  1 26  1  0
  1 27  1  0
  2  6  1  0
  2  3  1  0
  3  4  1  0
  3 28  1  0
  3 29  1  0
  4  5  1  0
  4 30  1  0
  4 31  1  0
  5 24  1  0
  5  6  1  0
  5 32  1  1
  6  7  1  0
  6 33  1  1
  7  8  1  0
  7 34  1  0
  7 35  1  0
  8  9  1  0
  8 36  1  0
  8 37  1  0
  9 24  1  0
  9 10  1  0
  9 38  1  1
 10 21  1  0
 10 11  1  0
 10 39  1  6
 11 12  1  0
 11 40  1  0
 11 41  1  0
 12 13  1  0
 12 42  1  0
 12 43  1  0
 13 19  1  0
 13 14  1  0
 13 44  1  1
 14 15  1  0
 14 45  1  0
 14 46  1  0
 15 16  1  0
 15 17  1  0
 15 47  1  6
 16 48  1  0
 17 18  1  0
 17 49  1  0
 17 50  1  0
 18 19  1  0
 18 51  1  0
 18 52  1  0
 19 20  1  1
 19 21  1  0
 20 53  1  0
 20 54  1  0
 20 55  1  0
 21 22  1  0
 21 56  1  1
 22 23  1  0
 22 57  1  0
 22 58  1  0
 23 24  1  0
 23 59  1  0
 23 60  1  0
 24 25  1  1
 25 61  1  0
 25 62  1  0
 25 63  1  0
M  END
>  <i_m_ct_stereo_status>  (345) 
1

>  <s_m_source_file>  (345) 
/var/tmp/pbs.5076255.sched01/tmpay8aiv4m/132fzfu5vr2.sdf

>  <i_m_source_file_index>  (345) 
30

>  <i_lp_mmshare_version>  (345) 
48012

>  <i_f3d_flags>  (345) 
0

>  <s_epik_input>  (345) 
W0NIMl0xW0NIMl1DKD1bQ0gyXSlbQ0BIXShbQ0gyXVtDSDJdMilbQ0BASF0xW0NAQF0oW0NIM10pKFtDSDJdW0NIMl1bQ0BIXTM0KVtDQEhdMltDQEBIXTNbQ0gyXVtDSDJdW0NASF0oW0NAXTQ1W0NIM10pW0NIMl1bQ0BASF0oW09IXSlbQ0gyXVtDSDJdNQ==

>  <s_epik_cmdline>  (345) 
J2VwaWtfcHl0aG9uJywgJy1waHQnLCAnMi4wJywgJy1waCcsICc3LjAnLCAnLXRuJywgJzgnLCAnLW1hJywgJzIwMCcsICctaW1hZScsICc8aW5maWxlLm1hZT4nLCAnLW9tYWUnLCAnPG91dGZpbGUubWFlPic=

>  <r_lp_tautomer_probability>  (345) 
1

>  <r_epik_Ionization_Penalty>  (345) 
3.40594e-06

>  <r_epik_Ionization_Penalty_Charging>  (345) 
0

>  <r_epik_Ionization_Penalty_Neutral>  (345) 
3.40594e-06

>  <r_epik_State_Penalty>  (345) 
-0

>  <r_epik_Charging_Adjusted_Penalty>  (345) 
0

>  <i_epik_Tot_Q>  (345) 
0

>  <i_epik_Tot_abs_Q>  (345) 
0

>  <s_lp_Force_Field>  (345) 
OPLS3e

>  <r_lp_Energy>  (345) 
70.825

>  <b_lp_Chiralities_Consistent>  (345) 
1

>  <s_lp_Variant>  (345) 
101:0-1

>  <s_i_glide_gridfile>  (345) 
pfpi4k_grid

>  <i_i_glide_lignum>  (345) 
30

>  <i_i_glide_rotatable_bonds>  (345) 
1

>  <r_i_docking_score>  (345) 
-2.40119

>  <r_i_glide_ligand_efficiency>  (345) 
-0.0960477

>  <r_i_glide_ligand_efficiency_sa>  (345) 
-0.280845

>  <r_i_glide_ligand_efficiency_ln>  (345) 
-0.569155

>  <r_i_glide_gscore>  (345) 
-2.40119

>  <r_i_glide_lipo>  (345) 
-0.274298

>  <r_i_glide_hbond>  (345) 
-0.0258808

>  <r_i_glide_metal>  (345) 
-0

>  <r_i_glide_rewards>  (345) 
-1.07347

>  <r_i_glide_evdw>  (345) 
-21.254

>  <r_i_glide_ecoul>  (345) 
0.234354

>  <r_i_glide_erotb>  (345) 
0

>  <r_i_glide_esite>  (345) 
0

>  <r_i_glide_emodel>  (345) 
-25.1979

>  <r_i_glide_energy>  (345) 
-21.0196

>  <r_i_glide_einternal>  (345) 
0.363945

>  <r_i_glide_intrahb_reward>  (345) 
-0

>  <i_i_glide_confnum>  (345) 
2

>  <i_i_glide_posenum>  (345) 
2

>  <r_i_glide_eff_state_penalty>  (345) 
0

>  <ligand_id>  (345) 
101

>  <original_smiles>  (345) 
C=C1CCC2C1CCC1C3CCC4CC(O)CCC4(C)C3CCC21C

>  <smiles>  (345) 
[H]OC1([H])C([H])([H])C([H])([H])C2(C([H])([H])[H])C([H])(C([H])([H])C([H])([H])C3([H])C2([H])C([H])([H])C([H])([H])C2(C([H])([H])[H])C4([H])C([H])([H])C([H])([H])C(=C([H])[H])C4([H])C([H])([H])C([H])([H])C32[H])C1([H])[H]

$$$$
102:0:0
     RDKit          3D

 47 50  0  0  1  0  0  0  0  0999 V2000
    3.2710   -1.6390   -2.7464 C   0  0  0  0  0  0  0  0  0  0  0  0
    3.8810   -1.8586   -1.3490 C   0  0  2  0  0  0  0  0  0  0  0  0
    5.3403   -1.3358   -1.3244 C   0  0  0  0  0  0  0  0  0  0  0  0
    6.1844   -1.9768   -0.2298 C   0  0  0  0  0  0  0  0  0  0  0  0
    7.4255   -1.9830   -0.3224 O   0  0  0  0  0  0  0  0  0  0  0  0
    5.4430   -2.5693    0.9740 C   0  0  2  0  0  0  0  0  0  0  0  0
    6.3352   -3.3953    1.6978 O   0  0  0  0  0  0  0  0  0  0  0  0
    5.7620   -4.6627    1.9419 C   0  0  1  0  0  0  0  0  0  0  0  0
    6.9609   -5.6293    2.0503 C   0  0  0  0  0  0  0  0  0  0  0  0
    5.0189   -4.5051    3.2936 C   0  0  0  0  0  0  0  0  0  0  0  0
    3.8096   -3.5058    3.2248 C   0  0  0  0  0  0  0  0  0  0  0  0
    3.1856   -3.2067    1.8044 C   0  0  1  0  0  0  0  0  0  0  0  0
    2.3696   -1.9211    1.8076 C   0  0  0  0  0  0  0  0  0  0  0  0
    4.2213   -3.4561    0.6712 C   0  0  1  0  0  0  0  0  0  0  0  0
    3.7117   -3.2992   -0.7813 C   0  0  2  0  0  0  0  0  0  0  0  0
    4.5115   -4.2344   -1.5055 O   0  0  0  0  0  0  0  0  0  0  0  0
    5.4032   -4.9685   -0.4971 O   0  0  0  0  0  0  0  0  0  0  0  0
    4.7463   -4.9000    0.7868 C   0  0  1  0  0  0  0  0  0  0  0  0
    3.7561   -6.1647    0.8660 C   0  0  0  0  0  0  0  0  0  0  0  0
    2.7168   -6.2237    2.0409 C   0  0  0  0  0  0  0  0  0  0  0  0
    4.4431   -7.5386    0.8694 C   0  0  0  0  0  0  0  0  0  0  0  0
    3.7755   -2.2311   -3.5121 H   0  0  0  0  0  0  0  0  0  0  0  0
    3.3468   -0.5879   -3.0411 H   0  0  0  0  0  0  0  0  0  0  0  0
    2.2101   -1.8972   -2.7608 H   0  0  0  0  0  0  0  0  0  0  0  0
    3.3147   -1.1985   -0.6925 H   0  0  0  0  0  0  0  0  0  0  0  0
    5.8268   -1.5473   -2.2792 H   0  0  0  0  0  0  0  0  0  0  0  0
    5.3466   -0.2646   -1.1873 H   0  0  0  0  0  0  0  0  0  0  0  0
    5.1582   -1.7085    1.5950 H   0  0  0  0  0  0  0  0  0  0  0  0
    6.7163   -6.5644    2.5475 H   0  0  0  0  0  0  0  0  0  0  0  0
    7.7531   -5.1722    2.6432 H   0  0  0  0  0  0  0  0  0  0  0  0
    7.3862   -5.8557    1.0704 H   0  0  0  0  0  0  0  0  0  0  0  0
    4.8071   -5.4972    3.6903 H   0  0  0  0  0  0  0  0  0  0  0  0
    5.6903   -4.1846    4.0797 H   0  0  0  0  0  0  0  0  0  0  0  0
    3.0167   -3.7896    3.9271 H   0  0  0  0  0  0  0  0  0  0  0  0
    4.1917   -2.5842    3.5886 H   0  0  0  0  0  0  0  0  0  0  0  0
    2.3693   -3.8264    1.5449 H   0  0  0  0  0  0  0  0  0  0  0  0
    2.9676   -1.0373    1.9148 H   0  0  0  0  0  0  0  0  0  0  0  0
    1.6325   -1.9519    2.6221 H   0  0  0  0  0  0  0  0  0  0  0  0
    1.7786   -1.8457    0.8875 H   0  0  0  0  0  0  0  0  0  0  0  0
    2.6755   -3.6052   -0.8698 H   0  0  0  0  0  0  0  0  0  0  0  0
    3.1674   -6.1533   -0.0233 H   0  0  0  0  0  0  0  0  0  0  0  0
    3.0964   -6.0470    3.0071 H   0  0  0  0  0  0  0  0  0  0  0  0
    2.2516   -7.1746    2.1447 H   0  0  0  0  0  0  0  0  0  0  0  0
    1.8721   -5.5927    1.9421 H   0  0  0  0  0  0  0  0  0  0  0  0
    5.1251   -7.7007    1.7061 H   0  0  0  0  0  0  0  0  0  0  0  0
    4.9918   -7.7654   -0.0534 H   0  0  0  0  0  0  0  0  0  0  0  0
    3.7030   -8.3461    0.9579 H   0  0  0  0  0  0  0  0  0  0  0  0
  1  2  1  0
  1 22  1  0
  1 23  1  0
  1 24  1  0
  2 15  1  0
  2  3  1  0
  2 25  1  1
  3  4  1  0
  3 26  1  0
  3 27  1  0
  4  5  2  0
  4  6  1  0
  6 14  1  0
  6  7  1  0
  6 28  1  1
  7  8  1  0
  8 18  1  0
  8  9  1  1
  8 10  1  0
  9 29  1  0
  9 30  1  0
  9 31  1  0
 10 11  1  0
 10 32  1  0
 10 33  1  0
 11 12  1  0
 11 34  1  0
 11 35  1  0
 12 13  1  0
 12 14  1  0
 12 36  1  6
 13 37  1  0
 13 38  1  0
 13 39  1  0
 14 18  1  6
 14 15  1  0
 15 16  1  0
 15 40  1  1
 16 17  1  0
 17 18  1  0
 18 19  1  1
 19 20  1  0
 19 21  1  0
 19 41  1  0
 20 42  1  0
 20 43  1  0
 20 44  1  0
 21 45  1  0
 21 46  1  0
 21 47  1  0
M  END
>  <i_m_ct_stereo_status>  (346) 
1

>  <s_m_source_file>  (346) 
/var/tmp/pbs.5076255.sched01/tmpay8aiv4m/132fzfu5vr2.sdf

>  <i_m_source_file_index>  (346) 
31

>  <i_lp_mmshare_version>  (346) 
48012

>  <i_f3d_flags>  (346) 
0

>  <s_epik_input>  (346) 
W0NAXTEyM1tDQEBIXTRDKD1PKVtDSDJdW0NAQEhdKFtDSDNdKVtDQEhdMk9PW0NAQF0zKFtDSF0oW0NIM10pW0NIM10pW0NAXShPNCkoW0NIM10pW0NIMl1bQ0gyXVtDQEhdMVtDSDNd

>  <s_epik_cmdline>  (346) 
J2VwaWtfcHl0aG9uJywgJy1waHQnLCAnMi4wJywgJy1waCcsICc3LjAnLCAnLXRuJywgJzgnLCAnLW1hJywgJzIwMCcsICctaW1hZScsICc8aW5maWxlLm1hZT4nLCAnLW9tYWUnLCAnPG91dGZpbGUubWFlPic=

>  <r_lp_tautomer_probability>  (346) 
1

>  <r_epik_Ionization_Penalty>  (346) 
3.47522e-11

>  <r_epik_Ionization_Penalty_Charging>  (346) 
0

>  <r_epik_Ionization_Penalty_Neutral>  (346) 
3.47522e-11

>  <r_epik_State_Penalty>  (346) 
-0

>  <r_epik_Charging_Adjusted_Penalty>  (346) 
0

>  <i_epik_Tot_Q>  (346) 
0

>  <i_epik_Tot_abs_Q>  (346) 
0

>  <s_lp_Force_Field>  (346) 
OPLS3e

>  <r_lp_Energy>  (346) 
36.0266

>  <b_lp_Chiralities_Consistent>  (346) 
1

>  <s_lp_Variant>  (346) 
102:0-1

>  <s_i_glide_gridfile>  (346) 
pfpi4k_grid

>  <i_i_glide_lignum>  (346) 
31

>  <i_i_glide_rotatable_bonds>  (346) 
1

>  <r_i_docking_score>  (346) 
-3.15932

>  <r_i_glide_ligand_efficiency>  (346) 
-0.150444

>  <r_i_glide_ligand_efficiency_sa>  (346) 
-0.415063

>  <r_i_glide_ligand_efficiency_ln>  (346) 
-0.781135

>  <r_i_glide_gscore>  (346) 
-3.15932

>  <r_i_glide_lipo>  (346) 
-0.414499

>  <r_i_glide_hbond>  (346) 
-0.15694

>  <r_i_glide_metal>  (346) 
-0

>  <r_i_glide_rewards>  (346) 
-1.40191

>  <r_i_glide_evdw>  (346) 
-17.1894

>  <r_i_glide_ecoul>  (346) 
-2.04711

>  <r_i_glide_erotb>  (346) 
0

>  <r_i_glide_esite>  (346) 
-0.0194273

>  <r_i_glide_emodel>  (346) 
-12.1372

>  <r_i_glide_energy>  (346) 
-19.2365

>  <r_i_glide_einternal>  (346) 
15.4138

>  <r_i_glide_intrahb_reward>  (346) 
-0

>  <i_i_glide_confnum>  (346) 
1

>  <i_i_glide_posenum>  (346) 
33

>  <r_i_glide_eff_state_penalty>  (346) 
0

>  <ligand_id>  (346) 
102

>  <original_smiles>  (346) 
CC1CC(=O)C2OC3(C)CCC(C)C24C1OOC34C(C)C

>  <smiles>  (346) 
[H]C([H])([H])C1([H])C([H])([H])C(=O)C2([H])OC3(C([H])([H])[H])C([H])([H])C([H])([H])C([H])(C([H])([H])[H])C24C1([H])OOC34C([H])(C([H])([H])[H])C([H])([H])[H]

$$$$
102:0:1
     RDKit          3D

 47 50  0  0  1  0  0  0  0  0999 V2000
    3.2957   -1.3950   -2.4261 C   0  0  0  0  0  0  0  0  0  0  0  0
    4.0336   -1.6477   -1.0977 C   0  0  2  0  0  0  0  0  0  0  0  0
    5.5327   -1.3525   -1.2723 C   0  0  0  0  0  0  0  0  0  0  0  0
    6.4080   -2.0861   -0.2621 C   0  0  0  0  0  0  0  0  0  0  0  0
    7.6041   -2.2494   -0.5039 O   0  0  0  0  0  0  0  0  0  0  0  0
    5.7430   -2.5501    1.0401 C   0  0  2  0  0  0  0  0  0  0  0  0
    6.6032   -3.4858    1.6696 O   0  0  0  0  0  0  0  0  0  0  0  0
    5.8947   -4.6748    1.9789 C   0  0  1  0  0  0  0  0  0  0  0  0
    6.9566   -5.7883    1.9601 C   0  0  0  0  0  0  0  0  0  0  0  0
    5.3062   -4.4435    3.3959 C   0  0  0  0  0  0  0  0  0  0  0  0
    4.3230   -3.2443    3.4726 C   0  0  0  0  0  0  0  0  0  0  0  0
    3.5094   -2.9661    2.1780 C   0  0  1  0  0  0  0  0  0  0  0  0
    2.8987   -1.5528    2.1957 C   0  0  0  0  0  0  0  0  0  0  0  0
    4.3622   -3.2793    0.9082 C   0  0  1  0  0  0  0  0  0  0  0  0
    3.7277   -3.0463   -0.4850 C   0  0  2  0  0  0  0  0  0  0  0  0
    4.3089   -4.0749   -1.2818 O   0  0  0  0  0  0  0  0  0  0  0  0
    5.2512   -4.8754   -0.4030 O   0  0  0  0  0  0  0  0  0  0  0  0
    4.7606   -4.7590    0.9152 C   0  0  1  0  0  0  0  0  0  0  0  0
    3.6661   -5.8795    1.1719 C   0  0  0  0  0  0  0  0  0  0  0  0
    4.1816   -7.3057    0.8811 C   0  0  0  0  0  0  0  0  0  0  0  0
    2.3004   -5.7213    0.4703 C   0  0  0  0  0  0  0  0  0  0  0  0
    3.6461   -2.0635   -3.2091 H   0  0  0  0  0  0  0  0  0  0  0  0
    3.4626   -0.3709   -2.7632 H   0  0  0  0  0  0  0  0  0  0  0  0
    2.2187   -1.5376   -2.3210 H   0  0  0  0  0  0  0  0  0  0  0  0
    3.6538   -0.8992   -0.3969 H   0  0  0  0  0  0  0  0  0  0  0  0
    5.8457   -1.6469   -2.2702 H   0  0  0  0  0  0  0  0  0  0  0  0
    5.7095   -0.2829   -1.1775 H   0  0  0  0  0  0  0  0  0  0  0  0
    5.6545   -1.6677    1.6735 H   0  0  0  0  0  0  0  0  0  0  0  0
    6.6294   -6.6833    2.4810 H   0  0  0  0  0  0  0  0  0  0  0  0
    7.8600   -5.4485    2.4695 H   0  0  0  0  0  0  0  0  0  0  0  0
    7.2436   -6.0567    0.9439 H   0  0  0  0  0  0  0  0  0  0  0  0
    4.8049   -5.3459    3.7357 H   0  0  0  0  0  0  0  0  0  0  0  0
    6.1102   -4.2874    4.1142 H   0  0  0  0  0  0  0  0  0  0  0  0
    3.6295   -3.4151    4.2929 H   0  0  0  0  0  0  0  0  0  0  0  0
    4.8863   -2.3470    3.7388 H   0  0  0  0  0  0  0  0  0  0  0  0
    2.6527   -3.6308    2.2359 H   0  0  0  0  0  0  0  0  0  0  0  0
    3.6631   -0.7742    2.1862 H   0  0  0  0  0  0  0  0  0  0  0  0
    2.3001   -1.4164    3.0955 H   0  0  0  0  0  0  0  0  0  0  0  0
    2.2390   -1.3872    1.3431 H   0  0  0  0  0  0  0  0  0  0  0  0
    2.6470   -3.1958   -0.4630 H   0  0  0  0  0  0  0  0  0  0  0  0
    3.4007   -5.8719    2.2274 H   0  0  0  0  0  0  0  0  0  0  0  0
    4.5726   -7.3914   -0.1327 H   0  0  0  0  0  0  0  0  0  0  0  0
    3.3792   -8.0375    0.9868 H   0  0  0  0  0  0  0  0  0  0  0  0
    4.9560   -7.6206    1.5748 H   0  0  0  0  0  0  0  0  0  0  0  0
    2.3820   -5.7041   -0.6109 H   0  0  0  0  0  0  0  0  0  0  0  0
    1.7800   -4.8192    0.7738 H   0  0  0  0  0  0  0  0  0  0  0  0
    1.6436   -6.5534    0.7300 H   0  0  0  0  0  0  0  0  0  0  0  0
  1  2  1  0
  1 22  1  0
  1 23  1  0
  1 24  1  0
  2 15  1  0
  2  3  1  0
  2 25  1  1
  3  4  1  0
  3 26  1  0
  3 27  1  0
  4  5  2  0
  4  6  1  0
  6 14  1  0
  6  7  1  0
  6 28  1  1
  7  8  1  0
  8 18  1  0
  8  9  1  1
  8 10  1  0
  9 29  1  0
  9 30  1  0
  9 31  1  0
 10 11  1  0
 10 32  1  0
 10 33  1  0
 11 12  1  0
 11 34  1  0
 11 35  1  0
 12 13  1  0
 12 14  1  0
 12 36  1  1
 13 37  1  0
 13 38  1  0
 13 39  1  0
 14 18  1  1
 14 15  1  0
 15 16  1  0
 15 40  1  1
 16 17  1  0
 17 18  1  0
 18 19  1  1
 19 20  1  0
 19 21  1  0
 19 41  1  0
 20 42  1  0
 20 43  1  0
 20 44  1  0
 21 45  1  0
 21 46  1  0
 21 47  1  0
M  END
>  <i_m_ct_stereo_status>  (347) 
1

>  <s_m_source_file>  (347) 
/var/tmp/pbs.5076255.sched01/tmpay8aiv4m/132fzfu5vr2.sdf

>  <i_m_source_file_index>  (347) 
31

>  <i_lp_mmshare_version>  (347) 
48012

>  <i_f3d_flags>  (347) 
0

>  <s_epik_input>  (347) 
W0NAXTEyM1tDQEBIXTRDKD1PKVtDSDJdW0NAQEhdKFtDSDNdKVtDQEhdMk9PW0NAQF0zKFtDSF0oW0NIM10pW0NIM10pW0NAXShPNCkoW0NIM10pW0NIMl1bQ0gyXVtDQEhdMVtDSDNd

>  <s_epik_cmdline>  (347) 
J2VwaWtfcHl0aG9uJywgJy1waHQnLCAnMi4wJywgJy1waCcsICc3LjAnLCAnLXRuJywgJzgnLCAnLW1hJywgJzIwMCcsICctaW1hZScsICc8aW5maWxlLm1hZT4nLCAnLW9tYWUnLCAnPG91dGZpbGUubWFlPic=

>  <r_lp_tautomer_probability>  (347) 
1

>  <r_epik_Ionization_Penalty>  (347) 
3.47522e-11

>  <r_epik_Ionization_Penalty_Charging>  (347) 
0

>  <r_epik_Ionization_Penalty_Neutral>  (347) 
3.47522e-11

>  <r_epik_State_Penalty>  (347) 
-0

>  <r_epik_Charging_Adjusted_Penalty>  (347) 
0

>  <i_epik_Tot_Q>  (347) 
0

>  <i_epik_Tot_abs_Q>  (347) 
0

>  <s_lp_Force_Field>  (347) 
OPLS3e

>  <r_lp_Energy>  (347) 
36.0266

>  <b_lp_Chiralities_Consistent>  (347) 
1

>  <s_lp_Variant>  (347) 
102:0-1

>  <s_i_glide_gridfile>  (347) 
pfpi4k_grid

>  <i_i_glide_lignum>  (347) 
31

>  <i_i_glide_rotatable_bonds>  (347) 
1

>  <r_i_docking_score>  (347) 
-3.06842

>  <r_i_glide_ligand_efficiency>  (347) 
-0.146115

>  <r_i_glide_ligand_efficiency_sa>  (347) 
-0.40312

>  <r_i_glide_ligand_efficiency_ln>  (347) 
-0.758659

>  <r_i_glide_gscore>  (347) 
-3.06842

>  <r_i_glide_lipo>  (347) 
-0.427993

>  <r_i_glide_hbond>  (347) 
-0.16

>  <r_i_glide_metal>  (347) 
-0

>  <r_i_glide_rewards>  (347) 
-1.40191

>  <r_i_glide_evdw>  (347) 
-17.0525

>  <r_i_glide_ecoul>  (347) 
-1.34387

>  <r_i_glide_erotb>  (347) 
0

>  <r_i_glide_esite>  (347) 
-0.0243048

>  <r_i_glide_emodel>  (347) 
-21.4039

>  <r_i_glide_energy>  (347) 
-18.3963

>  <r_i_glide_einternal>  (347) 
0.806932

>  <r_i_glide_intrahb_reward>  (347) 
-0

>  <i_i_glide_confnum>  (347) 
1

>  <i_i_glide_posenum>  (347) 
1

>  <r_i_glide_eff_state_penalty>  (347) 
0

>  <ligand_id>  (347) 
102

>  <original_smiles>  (347) 
CC1CC(=O)C2OC3(C)CCC(C)C24C1OOC34C(C)C

>  <smiles>  (347) 
[H]C([H])([H])C1([H])C([H])([H])C(=O)C2([H])OC3(C([H])([H])[H])C([H])([H])C([H])([H])C([H])(C([H])([H])[H])C24C1([H])OOC34C([H])(C([H])([H])[H])C([H])([H])[H]

$$$$
102:0:2
     RDKit          3D

 47 50  0  0  1  0  0  0  0  0999 V2000
    3.5705   -1.0284   -3.1489 C   0  0  0  0  0  0  0  0  0  0  0  0
    4.0997   -1.3366   -1.7387 C   0  0  2  0  0  0  0  0  0  0  0  0
    5.6194   -1.5065   -1.7885 C   0  0  0  0  0  0  0  0  0  0  0  0
    6.2000   -2.2858   -0.6144 C   0  0  0  0  0  0  0  0  0  0  0  0
    7.3219   -2.7812   -0.6943 O   0  0  0  0  0  0  0  0  0  0  0  0
    5.3239   -2.3878    0.6430 C   0  0  2  0  0  0  0  0  0  0  0  0
    5.8315   -3.4266    1.4656 O   0  0  0  0  0  0  0  0  0  0  0  0
    4.7997   -4.3373    1.8090 C   0  0  1  0  0  0  0  0  0  0  0  0
    5.5203   -5.6892    2.0042 C   0  0  0  0  0  0  0  0  0  0  0  0
    4.1730   -3.7705    3.1081 C   0  0  0  0  0  0  0  0  0  0  0  0
    3.5567   -2.3583    2.9439 C   0  0  0  0  0  0  0  0  0  0  0  0
    2.9736   -2.0227    1.5409 C   0  0  1  0  0  0  0  0  0  0  0  0
    2.8201   -0.4980    1.3929 C   0  0  0  0  0  0  0  0  0  0  0  0
    3.8151   -2.7342    0.4316 C   0  0  1  0  0  0  0  0  0  0  0  0
    3.3771   -2.5165   -1.0336 C   0  0  2  0  0  0  0  0  0  0  0  0
    3.7235   -3.7527   -1.6504 O   0  0  0  0  0  0  0  0  0  0  0  0
    4.3317   -4.6600   -0.5932 O   0  0  0  0  0  0  0  0  0  0  0  0
    3.7711   -4.2610    0.6436 C   0  0  1  0  0  0  0  0  0  0  0  0
    2.3787   -4.9954    0.8997 C   0  0  0  0  0  0  0  0  0  0  0  0
    2.4897   -6.3942    1.5360 C   0  0  0  0  0  0  0  0  0  0  0  0
    1.4228   -5.1215   -0.3111 C   0  0  0  0  0  0  0  0  0  0  0  0
    3.7475   -1.8551   -3.8409 H   0  0  0  0  0  0  0  0  0  0  0  0
    4.0592   -0.1409   -3.5602 H   0  0  0  0  0  0  0  0  0  0  0  0
    2.5022   -0.8270   -3.1228 H   0  0  0  0  0  0  0  0  0  0  0  0
    3.9207   -0.4462   -1.1454 H   0  0  0  0  0  0  0  0  0  0  0  0
    5.9125   -1.9985   -2.7152 H   0  0  0  0  0  0  0  0  0  0  0  0
    6.0528   -0.5136   -1.7745 H   0  0  0  0  0  0  0  0  0  0  0  0
    5.4433   -1.4419    1.1671 H   0  0  0  0  0  0  0  0  0  0  0  0
    4.9456   -6.4078    2.5848 H   0  0  0  0  0  0  0  0  0  0  0  0
    6.4575   -5.5391    2.5486 H   0  0  0  0  0  0  0  0  0  0  0  0
    5.7739   -6.1514    1.0465 H   0  0  0  0  0  0  0  0  0  0  0  0
    3.4041   -4.4402    3.4810 H   0  0  0  0  0  0  0  0  0  0  0  0
    4.9393   -3.7437    3.8853 H   0  0  0  0  0  0  0  0  0  0  0  0
    2.7867   -2.2280    3.7018 H   0  0  0  0  0  0  0  0  0  0  0  0
    4.3341   -1.6292    3.1872 H   0  0  0  0  0  0  0  0  0  0  0  0
    1.9449   -2.3779    1.4827 H   0  0  0  0  0  0  0  0  0  0  0  0
    3.7787    0.0222    1.4020 H   0  0  0  0  0  0  0  0  0  0  0  0
    2.2130   -0.1068    2.2120 H   0  0  0  0  0  0  0  0  0  0  0  0
    2.2957   -0.2375    0.4833 H   0  0  0  0  0  0  0  0  0  0  0  0
    2.3020   -2.3834   -1.1018 H   0  0  0  0  0  0  0  0  0  0  0  0
    1.8362   -4.4442    1.6663 H   0  0  0  0  0  0  0  0  0  0  0  0
    3.1742   -7.0387    0.9834 H   0  0  0  0  0  0  0  0  0  0  0  0
    1.5161   -6.8875    1.5755 H   0  0  0  0  0  0  0  0  0  0  0  0
    2.8065   -6.3366    2.5743 H   0  0  0  0  0  0  0  0  0  0  0  0
    1.8138   -5.7284   -1.1036 H   0  0  0  0  0  0  0  0  0  0  0  0
    1.1709   -4.1771   -0.7693 H   0  0  0  0  0  0  0  0  0  0  0  0
    0.5214   -5.6494   -0.0460 H   0  0  0  0  0  0  0  0  0  0  0  0
  1  2  1  0
  1 22  1  0
  1 23  1  0
  1 24  1  0
  2 15  1  0
  2  3  1  0
  2 25  1  1
  3  4  1  0
  3 26  1  0
  3 27  1  0
  4  5  2  0
  4  6  1  0
  6 14  1  0
  6  7  1  0
  6 28  1  1
  7  8  1  0
  8 18  1  0
  8  9  1  1
  8 10  1  0
  9 29  1  0
  9 30  1  0
  9 31  1  0
 10 11  1  0
 10 32  1  0
 10 33  1  0
 11 12  1  0
 11 34  1  0
 11 35  1  0
 12 13  1  0
 12 14  1  0
 12 36  1  1
 13 37  1  0
 13 38  1  0
 13 39  1  0
 14 18  1  1
 14 15  1  0
 15 16  1  0
 15 40  1  1
 16 17  1  0
 17 18  1  0
 18 19  1  1
 19 20  1  0
 19 21  1  0
 19 41  1  0
 20 42  1  0
 20 43  1  0
 20 44  1  0
 21 45  1  0
 21 46  1  0
 21 47  1  0
M  END
>  <i_m_ct_stereo_status>  (348) 
1

>  <s_m_source_file>  (348) 
/var/tmp/pbs.5076255.sched01/tmpay8aiv4m/132fzfu5vr2.sdf

>  <i_m_source_file_index>  (348) 
31

>  <i_lp_mmshare_version>  (348) 
48012

>  <i_f3d_flags>  (348) 
0

>  <s_epik_input>  (348) 
W0NAXTEyM1tDQEBIXTRDKD1PKVtDSDJdW0NAQEhdKFtDSDNdKVtDQEhdMk9PW0NAQF0zKFtDSF0oW0NIM10pW0NIM10pW0NAXShPNCkoW0NIM10pW0NIMl1bQ0gyXVtDQEhdMVtDSDNd

>  <s_epik_cmdline>  (348) 
J2VwaWtfcHl0aG9uJywgJy1waHQnLCAnMi4wJywgJy1waCcsICc3LjAnLCAnLXRuJywgJzgnLCAnLW1hJywgJzIwMCcsICctaW1hZScsICc8aW5maWxlLm1hZT4nLCAnLW9tYWUnLCAnPG91dGZpbGUubWFlPic=

>  <r_lp_tautomer_probability>  (348) 
1

>  <r_epik_Ionization_Penalty>  (348) 
3.47522e-11

>  <r_epik_Ionization_Penalty_Charging>  (348) 
0

>  <r_epik_Ionization_Penalty_Neutral>  (348) 
3.47522e-11

>  <r_epik_State_Penalty>  (348) 
-0

>  <r_epik_Charging_Adjusted_Penalty>  (348) 
0

>  <i_epik_Tot_Q>  (348) 
0

>  <i_epik_Tot_abs_Q>  (348) 
0

>  <s_lp_Force_Field>  (348) 
OPLS3e

>  <r_lp_Energy>  (348) 
36.0266

>  <b_lp_Chiralities_Consistent>  (348) 
1

>  <s_lp_Variant>  (348) 
102:0-1

>  <s_i_glide_gridfile>  (348) 
pfpi4k_grid

>  <i_i_glide_lignum>  (348) 
31

>  <i_i_glide_rotatable_bonds>  (348) 
1

>  <r_i_docking_score>  (348) 
-2.24809

>  <r_i_glide_ligand_efficiency>  (348) 
-0.107052

>  <r_i_glide_ligand_efficiency_sa>  (348) 
-0.295348

>  <r_i_glide_ligand_efficiency_ln>  (348) 
-0.555836

>  <r_i_glide_gscore>  (348) 
-2.24809

>  <r_i_glide_lipo>  (348) 
-0.172726

>  <r_i_glide_hbond>  (348) 
-0.00467966

>  <r_i_glide_metal>  (348) 
-0

>  <r_i_glide_rewards>  (348) 
-1.40191

>  <r_i_glide_evdw>  (348) 
-12.7315

>  <r_i_glide_ecoul>  (348) 
-0.0114125

>  <r_i_glide_erotb>  (348) 
0

>  <r_i_glide_esite>  (348) 
-0.0304831

>  <r_i_glide_emodel>  (348) 
-13.7939

>  <r_i_glide_energy>  (348) 
-12.7429

>  <r_i_glide_einternal>  (348) 
1.99621

>  <r_i_glide_intrahb_reward>  (348) 
-0

>  <i_i_glide_confnum>  (348) 
2

>  <i_i_glide_posenum>  (348) 
2

>  <r_i_glide_eff_state_penalty>  (348) 
0

>  <ligand_id>  (348) 
102

>  <original_smiles>  (348) 
CC1CC(=O)C2OC3(C)CCC(C)C24C1OOC34C(C)C

>  <smiles>  (348) 
[H]C([H])([H])C1([H])C([H])([H])C(=O)C2([H])OC3(C([H])([H])[H])C([H])([H])C([H])([H])C([H])(C([H])([H])[H])C24C1([H])OOC34C([H])(C([H])([H])[H])C([H])([H])[H]

$$$$
103:0:0
     RDKit          3D

 20 21  0  0  1  0  0  0  0  0999 V2000
    7.0689   -4.2356    0.0887 C   0  0  0  0  0  0  0  0  0  0  0  0
    8.2393   -3.7021    0.3990 N   0  0  0  0  0  0  0  0  0  0  0  0
    8.1807   -2.4538   -0.1933 N   0  0  0  0  0  0  0  0  0  0  0  0
    7.0456   -2.2675   -0.8016 N   0  0  0  0  0  0  0  0  0  0  0  0
    6.3317   -3.4130   -0.6531 N   0  0  0  0  0  0  0  0  0  0  0  0
    5.0110   -3.5874   -1.2415 C   0  0  2  0  0  0  0  0  0  0  0  0
    4.9554   -3.2224   -2.7431 C   0  0  0  0  0  0  0  0  0  0  0  0
    3.8479   -2.1672   -2.8562 C   0  0  0  0  0  0  0  0  0  0  0  0
    3.0115   -2.3822   -1.6675 N   0  0  0  0  0  0  0  0  0  0  0  0
    3.9270   -2.7261   -0.5709 C   0  0  0  0  0  0  0  0  0  0  0  0
    6.7561   -5.2257    0.3914 H   0  0  0  0  0  0  0  0  0  0  0  0
    4.7296   -4.6378   -1.1347 H   0  0  0  0  0  0  0  0  0  0  0  0
    5.9059   -2.8716   -3.1519 H   0  0  0  0  0  0  0  0  0  0  0  0
    4.6837   -4.1123   -3.3136 H   0  0  0  0  0  0  0  0  0  0  0  0
    4.2851   -1.1714   -2.7948 H   0  0  0  0  0  0  0  0  0  0  0  0
    3.2809   -2.2376   -3.7862 H   0  0  0  0  0  0  0  0  0  0  0  0
    2.3838   -1.6086   -1.4400 H   0  0  0  0  0  0  0  0  0  0  0  0
    3.4187   -3.2355    0.2521 H   0  0  0  0  0  0  0  0  0  0  0  0
    4.3484   -1.8016   -0.1770 H   0  0  0  0  0  0  0  0  0  0  0  0
    2.4445   -3.1989   -1.8560 H   0  0  0  0  0  0  0  0  0  0  0  0
  1  5  1  0
  1  2  2  0
  1 11  1  0
  2  3  1  0
  3  4  2  0
  4  5  1  0
  5  6  1  0
  6 10  1  0
  6  7  1  0
  6 12  1  6
  7  8  1  0
  7 13  1  0
  7 14  1  0
  8  9  1  0
  8 15  1  0
  8 16  1  0
  9 10  1  0
  9 17  1  0
  9 20  1  0
 10 18  1  0
 10 19  1  0
M  CHG  1   9   1
M  END
>  <i_m_ct_stereo_status>  (349) 
1

>  <s_m_source_file>  (349) 
/var/tmp/pbs.5076255.sched01/tmpay8aiv4m/132fzfu5vr2.sdf

>  <i_m_source_file_index>  (349) 
32

>  <i_lp_mmshare_version>  (349) 
48012

>  <i_f3d_flags>  (349) 
0

>  <s_epik_input>  (349) 
bjFubltjSF1uMVtDQEBIXTJbQ0gyXVtDSDJdW05IXVtDSDJdMg==

>  <s_epik_cmdline>  (349) 
J2VwaWtfcHl0aG9uJywgJy1waHQnLCAnMi4wJywgJy1waCcsICc3LjAnLCAnLXRuJywgJzgnLCAnLW1hJywgJzIwMCcsICctaW1hZScsICc8aW5maWxlLm1hZT4nLCAnLW9tYWUnLCAnPG91dGZpbGUubWFlPic=

>  <r_lp_tautomer_probability>  (349) 
1

>  <r_epik_Ionization_Penalty>  (349) 
0.00235962

>  <r_epik_Ionization_Penalty_Charging>  (349) 
0.00235962

>  <r_epik_Ionization_Penalty_Neutral>  (349) 
8.67528e-11

>  <r_epik_State_Penalty>  (349) 
0.00163

>  <r_epik_Charging_Adjusted_Penalty>  (349) 
0.00398962

>  <i_epik_Tot_Q>  (349) 
1

>  <i_epik_Tot_abs_Q>  (349) 
1

>  <s_lp_Force_Field>  (349) 
OPLS3e

>  <r_lp_Energy>  (349) 
13.3582

>  <b_lp_Chiralities_Consistent>  (349) 
1

>  <s_lp_Variant>  (349) 
103:0-1

>  <s_i_glide_gridfile>  (349) 
pfpi4k_grid

>  <i_i_glide_lignum>  (349) 
32

>  <i_i_glide_rotatable_bonds>  (349) 
1

>  <r_i_docking_score>  (349) 
-4.20578

>  <r_i_glide_ligand_efficiency>  (349) 
-0.420578

>  <r_i_glide_ligand_efficiency_sa>  (349) 
-0.906108

>  <r_i_glide_ligand_efficiency_ln>  (349) 
-1.27348

>  <r_i_glide_gscore>  (349) 
-4.20578

>  <r_i_glide_lipo>  (349) 
-0.266188

>  <r_i_glide_hbond>  (349) 
-0.199246

>  <r_i_glide_metal>  (349) 
-0

>  <r_i_glide_rewards>  (349) 
-2.53802

>  <r_i_glide_evdw>  (349) 
-16.2442

>  <r_i_glide_ecoul>  (349) 
-6.55914

>  <r_i_glide_erotb>  (349) 
0.727796

>  <r_i_glide_esite>  (349) 
-0.134036

>  <r_i_glide_emodel>  (349) 
-30.8969

>  <r_i_glide_energy>  (349) 
-22.8034

>  <r_i_glide_einternal>  (349) 
0.180687

>  <r_i_glide_intrahb_reward>  (349) 
-0

>  <i_i_glide_confnum>  (349) 
5

>  <i_i_glide_posenum>  (349) 
20

>  <r_i_glide_eff_state_penalty>  (349) 
0

>  <ligand_id>  (349) 
103

>  <original_smiles>  (349) 
c1nnnn1C1CCNC1

>  <smiles>  (349) 
[H]c1nnnn1C1([H])C([H])([H])C([H])([H])[N+]([H])([H])C1([H])[H]

$$$$
103:0:1
     RDKit          3D

 20 21  0  0  1  0  0  0  0  0999 V2000
    5.6414   -2.2754    0.1703 C   0  0  0  0  0  0  0  0  0  0  0  0
    6.8706   -1.8636    0.4461 N   0  0  0  0  0  0  0  0  0  0  0  0
    7.6038   -2.2884   -0.6507 N   0  0  0  0  0  0  0  0  0  0  0  0
    6.8435   -2.8904   -1.5209 N   0  0  0  0  0  0  0  0  0  0  0  0
    5.5790   -2.8620   -1.0271 N   0  0  0  0  0  0  0  0  0  0  0  0
    4.4756   -3.4948   -1.7422 C   0  0  2  0  0  0  0  0  0  0  0  0
    4.3964   -3.1303   -3.2407 C   0  0  0  0  0  0  0  0  0  0  0  0
    3.0037   -2.5249   -3.4404 C   0  0  0  0  0  0  0  0  0  0  0  0
    2.2011   -3.0626   -2.3401 N   0  0  0  0  0  0  0  0  0  0  0  0
    3.0959   -3.1053   -1.1806 C   0  0  0  0  0  0  0  0  0  0  0  0
    4.7961   -2.1481    0.8393 H   0  0  0  0  0  0  0  0  0  0  0  0
    4.6041   -4.5758   -1.6568 H   0  0  0  0  0  0  0  0  0  0  0  0
    5.1731   -2.4435   -3.5706 H   0  0  0  0  0  0  0  0  0  0  0  0
    4.4945   -4.0360   -3.8445 H   0  0  0  0  0  0  0  0  0  0  0  0
    3.0523   -1.4415   -3.3382 H   0  0  0  0  0  0  0  0  0  0  0  0
    2.5655   -2.7483   -4.4085 H   0  0  0  0  0  0  0  0  0  0  0  0
    1.3958   -2.4817   -2.1358 H   0  0  0  0  0  0  0  0  0  0  0  0
    2.7376   -3.7768   -0.3984 H   0  0  0  0  0  0  0  0  0  0  0  0
    3.0885   -2.0944   -0.7724 H   0  0  0  0  0  0  0  0  0  0  0  0
    1.9272   -4.0097   -2.5764 H   0  0  0  0  0  0  0  0  0  0  0  0
  1  5  1  0
  1  2  2  0
  1 11  1  0
  2  3  1  0
  3  4  2  0
  4  5  1  0
  5  6  1  0
  6 10  1  0
  6  7  1  0
  6 12  1  6
  7  8  1  0
  7 13  1  0
  7 14  1  0
  8  9  1  0
  8 15  1  0
  8 16  1  0
  9 10  1  0
  9 17  1  0
  9 20  1  0
 10 18  1  0
 10 19  1  0
M  CHG  1   9   1
M  END
>  <i_m_ct_stereo_status>  (350) 
1

>  <s_m_source_file>  (350) 
/var/tmp/pbs.5076255.sched01/tmpay8aiv4m/132fzfu5vr2.sdf

>  <i_m_source_file_index>  (350) 
32

>  <i_lp_mmshare_version>  (350) 
48012

>  <i_f3d_flags>  (350) 
0

>  <s_epik_input>  (350) 
bjFubltjSF1uMVtDQEBIXTJbQ0gyXVtDSDJdW05IXVtDSDJdMg==

>  <s_epik_cmdline>  (350) 
J2VwaWtfcHl0aG9uJywgJy1waHQnLCAnMi4wJywgJy1waCcsICc3LjAnLCAnLXRuJywgJzgnLCAnLW1hJywgJzIwMCcsICctaW1hZScsICc8aW5maWxlLm1hZT4nLCAnLW9tYWUnLCAnPG91dGZpbGUubWFlPic=

>  <r_lp_tautomer_probability>  (350) 
1

>  <r_epik_Ionization_Penalty>  (350) 
0.00235962

>  <r_epik_Ionization_Penalty_Charging>  (350) 
0.00235962

>  <r_epik_Ionization_Penalty_Neutral>  (350) 
8.67528e-11

>  <r_epik_State_Penalty>  (350) 
0.00163

>  <r_epik_Charging_Adjusted_Penalty>  (350) 
0.00398962

>  <i_epik_Tot_Q>  (350) 
1

>  <i_epik_Tot_abs_Q>  (350) 
1

>  <s_lp_Force_Field>  (350) 
OPLS3e

>  <r_lp_Energy>  (350) 
13.3582

>  <b_lp_Chiralities_Consistent>  (350) 
1

>  <s_lp_Variant>  (350) 
103:0-1

>  <s_i_glide_gridfile>  (350) 
pfpi4k_grid

>  <i_i_glide_lignum>  (350) 
32

>  <i_i_glide_rotatable_bonds>  (350) 
1

>  <r_i_docking_score>  (350) 
-4.09799

>  <r_i_glide_ligand_efficiency>  (350) 
-0.409799

>  <r_i_glide_ligand_efficiency_sa>  (350) 
-0.882885

>  <r_i_glide_ligand_efficiency_ln>  (350) 
-1.24084

>  <r_i_glide_gscore>  (350) 
-4.09799

>  <r_i_glide_lipo>  (350) 
-0.340478

>  <r_i_glide_hbond>  (350) 
-0.162933

>  <r_i_glide_metal>  (350) 
-0

>  <r_i_glide_rewards>  (350) 
-2.29197

>  <r_i_glide_evdw>  (350) 
-17.6073

>  <r_i_glide_ecoul>  (350) 
-7.16607

>  <r_i_glide_erotb>  (350) 
0.727796

>  <r_i_glide_esite>  (350) 
-0.0751308

>  <r_i_glide_emodel>  (350) 
-32.032

>  <r_i_glide_energy>  (350) 
-24.7734

>  <r_i_glide_einternal>  (350) 
1.48729

>  <r_i_glide_intrahb_reward>  (350) 
-0

>  <i_i_glide_confnum>  (350) 
5

>  <i_i_glide_posenum>  (350) 
29

>  <r_i_glide_eff_state_penalty>  (350) 
0

>  <ligand_id>  (350) 
103

>  <original_smiles>  (350) 
c1nnnn1C1CCNC1

>  <smiles>  (350) 
[H]c1nnnn1C1([H])C([H])([H])C([H])([H])[N+]([H])([H])C1([H])[H]

$$$$
103:0:2
     RDKit          3D

 20 21  0  0  1  0  0  0  0  0999 V2000
    6.5385   -3.1343   -0.3243 C   0  0  0  0  0  0  0  0  0  0  0  0
    7.1208   -2.1237    0.3025 N   0  0  0  0  0  0  0  0  0  0  0  0
    6.2437   -1.0750    0.0928 N   0  0  0  0  0  0  0  0  0  0  0  0
    5.2397   -1.4311   -0.6556 N   0  0  0  0  0  0  0  0  0  0  0  0
    5.3986   -2.7545   -0.9041 N   0  0  0  0  0  0  0  0  0  0  0  0
    4.4565   -3.5039   -1.7110 C   0  0  2  0  0  0  0  0  0  0  0  0
    4.4226   -3.0369   -3.1829 C   0  0  0  0  0  0  0  0  0  0  0  0
    2.9582   -2.6931   -3.4503 C   0  0  0  0  0  0  0  0  0  0  0  0
    2.2113   -3.4560   -2.4447 N   0  0  0  0  0  0  0  0  0  0  0  0
    3.0054   -3.4060   -1.2123 C   0  0  0  0  0  0  0  0  0  0  0  0
    6.9308   -4.1400   -0.3659 H   0  0  0  0  0  0  0  0  0  0  0  0
    4.7528   -4.5567   -1.6875 H   0  0  0  0  0  0  0  0  0  0  0  0
    5.0899   -2.1973   -3.3842 H   0  0  0  0  0  0  0  0  0  0  0  0
    4.7322   -3.8605   -3.8271 H   0  0  0  0  0  0  0  0  0  0  0  0
    2.7893   -1.6284   -3.2788 H   0  0  0  0  0  0  0  0  0  0  0  0
    2.6380   -2.9291   -4.4652 H   0  0  0  0  0  0  0  0  0  0  0  0
    1.2718   -3.1124   -2.3197 H   0  0  0  0  0  0  0  0  0  0  0  0
    2.7366   -4.2054   -0.5193 H   0  0  0  0  0  0  0  0  0  0  0  0
    2.8065   -2.4539   -0.7200 H   0  0  0  0  0  0  0  0  0  0  0  0
    2.1948   -4.4332   -2.7383 H   0  0  0  0  0  0  0  0  0  0  0  0
  1  5  1  0
  1  2  2  0
  1 11  1  0
  2  3  1  0
  3  4  2  0
  4  5  1  0
  5  6  1  0
  6 10  1  0
  6  7  1  0
  6 12  1  6
  7  8  1  0
  7 13  1  0
  7 14  1  0
  8  9  1  0
  8 15  1  0
  8 16  1  0
  9 10  1  0
  9 17  1  0
  9 20  1  0
 10 18  1  0
 10 19  1  0
M  CHG  1   9   1
M  END
>  <i_m_ct_stereo_status>  (351) 
1

>  <s_m_source_file>  (351) 
/var/tmp/pbs.5076255.sched01/tmpay8aiv4m/132fzfu5vr2.sdf

>  <i_m_source_file_index>  (351) 
32

>  <i_lp_mmshare_version>  (351) 
48012

>  <i_f3d_flags>  (351) 
0

>  <s_epik_input>  (351) 
bjFubltjSF1uMVtDQEBIXTJbQ0gyXVtDSDJdW05IXVtDSDJdMg==

>  <s_epik_cmdline>  (351) 
J2VwaWtfcHl0aG9uJywgJy1waHQnLCAnMi4wJywgJy1waCcsICc3LjAnLCAnLXRuJywgJzgnLCAnLW1hJywgJzIwMCcsICctaW1hZScsICc8aW5maWxlLm1hZT4nLCAnLW9tYWUnLCAnPG91dGZpbGUubWFlPic=

>  <r_lp_tautomer_probability>  (351) 
1

>  <r_epik_Ionization_Penalty>  (351) 
0.00235962

>  <r_epik_Ionization_Penalty_Charging>  (351) 
0.00235962

>  <r_epik_Ionization_Penalty_Neutral>  (351) 
8.67528e-11

>  <r_epik_State_Penalty>  (351) 
0.00163

>  <r_epik_Charging_Adjusted_Penalty>  (351) 
0.00398962

>  <i_epik_Tot_Q>  (351) 
1

>  <i_epik_Tot_abs_Q>  (351) 
1

>  <s_lp_Force_Field>  (351) 
OPLS3e

>  <r_lp_Energy>  (351) 
13.3582

>  <b_lp_Chiralities_Consistent>  (351) 
1

>  <s_lp_Variant>  (351) 
103:0-1

>  <s_i_glide_gridfile>  (351) 
pfpi4k_grid

>  <i_i_glide_lignum>  (351) 
32

>  <i_i_glide_rotatable_bonds>  (351) 
1

>  <r_i_docking_score>  (351) 
-3.98343

>  <r_i_glide_ligand_efficiency>  (351) 
-0.398343

>  <r_i_glide_ligand_efficiency_sa>  (351) 
-0.858203

>  <r_i_glide_ligand_efficiency_ln>  (351) 
-1.20615

>  <r_i_glide_gscore>  (351) 
-3.98343

>  <r_i_glide_lipo>  (351) 
-0.404397

>  <r_i_glide_hbond>  (351) 
0

>  <r_i_glide_metal>  (351) 
-0

>  <r_i_glide_rewards>  (351) 
-2.35829

>  <r_i_glide_evdw>  (351) 
-17.2164

>  <r_i_glide_ecoul>  (351) 
-6.95051

>  <r_i_glide_erotb>  (351) 
0.727796

>  <r_i_glide_esite>  (351) 
-0.0451381

>  <r_i_glide_emodel>  (351) 
-31.9235

>  <r_i_glide_energy>  (351) 
-24.1669

>  <r_i_glide_einternal>  (351) 
0.0566822

>  <r_i_glide_intrahb_reward>  (351) 
-0

>  <i_i_glide_confnum>  (351) 
5

>  <i_i_glide_posenum>  (351) 
24

>  <r_i_glide_eff_state_penalty>  (351) 
0

>  <ligand_id>  (351) 
103

>  <original_smiles>  (351) 
c1nnnn1C1CCNC1

>  <smiles>  (351) 
[H]c1nnnn1C1([H])C([H])([H])C([H])([H])[N+]([H])([H])C1([H])[H]

$$$$
104:0:0
     RDKit          3D

 35 38  0  0  1  0  0  0  0  0999 V2000
    1.8091   -4.7643   -0.7194 O   0  0  0  0  0  0  0  0  0  0  0  0
    2.2148   -3.4875   -0.0569 N   0  0  0  0  0  0  0  0  0  0  0  0
    3.5312   -3.6791    0.5072 C   0  0  2  0  0  0  0  0  0  0  0  0
    3.8953   -2.4425    1.3469 C   0  0  1  0  0  0  0  0  0  0  0  0
    5.2496   -2.7059    2.0410 C   0  0  0  0  0  0  0  0  0  0  0  0
    6.3347   -2.9224    0.9711 C   0  0  2  0  0  0  0  0  0  0  0  0
    6.4549   -1.6813    0.0695 C   0  0  0  0  0  0  0  0  0  0  0  0
    5.1094   -1.4034   -0.6313 C   0  0  2  0  0  0  0  0  0  0  0  0
    4.0077   -1.1881    0.4393 C   0  0  0  0  0  0  0  0  0  0  0  0
    4.7302   -2.6424   -1.5054 C   0  0  0  0  0  0  0  0  0  0  0  0
    3.5379   -2.3675   -2.1753 O   0  0  0  0  0  0  0  0  0  0  0  0
    3.5785   -3.0504   -3.4074 C   0  0  0  0  0  0  0  0  0  0  0  0
    4.9884   -3.6431   -3.4538 C   0  0  0  0  0  0  0  0  0  0  0  0
    5.6896   -2.8746   -2.4900 O   0  0  0  0  0  0  0  0  0  0  0  0
    4.6060   -3.9134   -0.5733 C   0  0  1  0  0  0  0  0  0  0  0  0
    5.9767   -4.1343    0.0993 C   0  0  0  0  0  0  0  0  0  0  0  0
    2.4467   -4.9025   -1.4092 H   0  0  0  0  0  0  0  0  0  0  0  0
    2.2356   -2.8159   -0.8362 H   0  0  0  0  0  0  0  0  0  0  0  0
    3.4803   -4.5448    1.1726 H   0  0  0  0  0  0  0  0  0  0  0  0
    3.1324   -2.2748    2.1122 H   0  0  0  0  0  0  0  0  0  0  0  0
    5.5218   -1.8728    2.6946 H   0  0  0  0  0  0  0  0  0  0  0  0
    5.1733   -3.5939    2.6745 H   0  0  0  0  0  0  0  0  0  0  0  0
    7.2906   -3.1062    1.4563 H   0  0  0  0  0  0  0  0  0  0  0  0
    6.7427   -0.8177    0.6721 H   0  0  0  0  0  0  0  0  0  0  0  0
    7.2483   -1.8395   -0.6597 H   0  0  0  0  0  0  0  0  0  0  0  0
    5.1750   -0.5327   -1.2804 H   0  0  0  0  0  0  0  0  0  0  0  0
    3.0495   -0.9662   -0.0389 H   0  0  0  0  0  0  0  0  0  0  0  0
    4.2326   -0.3093    1.0493 H   0  0  0  0  0  0  0  0  0  0  0  0
    2.8133   -3.8226   -3.4518 H   0  0  0  0  0  0  0  0  0  0  0  0
    3.4004   -2.3474   -4.2222 H   0  0  0  0  0  0  0  0  0  0  0  0
    5.0068   -4.6984   -3.1718 H   0  0  0  0  0  0  0  0  0  0  0  0
    5.4167   -3.6183   -4.4445 H   0  0  0  0  0  0  0  0  0  0  0  0
    4.3491   -4.8109   -1.1244 H   0  0  0  0  0  0  0  0  0  0  0  0
    6.7467   -4.2767   -0.6542 H   0  0  0  0  0  0  0  0  0  0  0  0
    5.9458   -5.0441    0.6996 H   0  0  0  0  0  0  0  0  0  0  0  0
  1  2  1  0
  1 17  1  0
  2  3  1  0
  2 18  1  0
  3 15  1  0
  3  4  1  0
  3 19  1  1
  4  9  1  0
  4  5  1  0
  4 20  1  1
  5  6  1  0
  5 21  1  0
  5 22  1  0
  6 16  1  0
  6  7  1  0
  6 23  1  1
  7  8  1  0
  7 24  1  0
  7 25  1  0
  8  9  1  0
  8 10  1  0
  8 26  1  6
  9 27  1  0
  9 28  1  0
 10 14  1  0
 10 11  1  0
 10 15  1  0
 11 12  1  0
 12 13  1  0
 12 29  1  0
 12 30  1  0
 13 14  1  0
 13 31  1  0
 13 32  1  0
 15 16  1  0
 15 33  1  6
 16 34  1  0
 16 35  1  0
M  END
>  <i_m_ct_stereo_status>  (352) 
1

>  <s_m_source_file>  (352) 
/var/tmp/pbs.5076255.sched01/tmpay8aiv4m/132fzfu5vr2.sdf

>  <i_m_source_file_index>  (352) 
33

>  <i_lp_mmshare_version>  (352) 
48012

>  <i_f3d_flags>  (352) 
0

>  <s_epik_input>  (352) 
W09IXVtOSF1bQ0BASF0oW0NAQEhdMVtDSDJdMilbQ0BIXShbQ0gyXTMpW0NIMl1bQ0BASF0yW0NIMl1bQ0BIXTNDMTRPW0NIMl1bQ0gyXU80

>  <s_epik_cmdline>  (352) 
J2VwaWtfcHl0aG9uJywgJy1waHQnLCAnMi4wJywgJy1waCcsICc3LjAnLCAnLXRuJywgJzgnLCAnLW1hJywgJzIwMCcsICctaW1hZScsICc8aW5maWxlLm1hZT4nLCAnLW9tYWUnLCAnPG91dGZpbGUubWFlPic=

>  <r_epik_Ionization_Penalty>  (352) 
0.0047345

>  <r_epik_Ionization_Penalty_Charging>  (352) 
0

>  <r_epik_Ionization_Penalty_Neutral>  (352) 
0.0047345

>  <r_epik_State_Penalty>  (352) 
0.170605

>  <r_epik_Charging_Adjusted_Penalty>  (352) 
0.170605

>  <i_epik_Tot_Q>  (352) 
0

>  <i_epik_Tot_abs_Q>  (352) 
0

>  <s_epik_Chemistry_Notes>  (352) 
This compound has a N-S or N-O group and may undergo hydrolysis at high or low pH.

>  <s_lp_Force_Field>  (352) 
OPLS3e

>  <r_lp_Energy>  (352) 
1.33365

>  <b_lp_Chiralities_Consistent>  (352) 
1

>  <s_lp_Variant>  (352) 
104:0-1

>  <s_i_glide_gridfile>  (352) 
pfpi4k_grid

>  <i_i_glide_lignum>  (352) 
33

>  <i_i_glide_rotatable_bonds>  (352) 
2

>  <r_i_docking_score>  (352) 
-4.84954

>  <r_i_glide_ligand_efficiency>  (352) 
-0.303096

>  <r_i_glide_ligand_efficiency_sa>  (352) 
-0.763755

>  <r_i_glide_ligand_efficiency_ln>  (352) 
-1.28547

>  <r_i_glide_gscore>  (352) 
-4.84954

>  <r_i_glide_lipo>  (352) 
-0.528089

>  <r_i_glide_hbond>  (352) 
-0.0120353

>  <r_i_glide_metal>  (352) 
-0

>  <r_i_glide_rewards>  (352) 
-2.37306

>  <r_i_glide_evdw>  (352) 
-17.0159

>  <r_i_glide_ecoul>  (352) 
-6.21668

>  <r_i_glide_erotb>  (352) 
0

>  <r_i_glide_esite>  (352) 
-0.153058

>  <r_i_glide_emodel>  (352) 
-35.4689

>  <r_i_glide_energy>  (352) 
-23.2325

>  <r_i_glide_einternal>  (352) 
0.286578

>  <r_i_glide_intrahb_reward>  (352) 
-0.5

>  <i_i_glide_confnum>  (352) 
4

>  <i_i_glide_posenum>  (352) 
8

>  <r_i_glide_eff_state_penalty>  (352) 
0

>  <ligand_id>  (352) 
104

>  <original_smiles>  (352) 
ONC1C2CC3CC(C2)C2(OCCO2)C1C3

>  <smiles>  (352) 
[H]ON([H])C1([H])C2([H])C([H])([H])C3([H])C([H])([H])C([H])(C2([H])[H])C2(OC([H])([H])C([H])([H])O2)C1([H])C3([H])[H]

$$$$
104:0:1
     RDKit          3D

 35 38  0  0  1  0  0  0  0  0999 V2000
    1.9537   -5.7041    0.6069 O   0  0  0  0  0  0  0  0  0  0  0  0
    2.5554   -4.7545   -0.2980 N   0  0  0  0  0  0  0  0  0  0  0  0
    3.8894   -4.4043    0.1820 C   0  0  2  0  0  0  0  0  0  0  0  0
    3.8813   -3.4629    1.4130 C   0  0  1  0  0  0  0  0  0  0  0  0
    5.3322   -3.2566    1.9062 C   0  0  0  0  0  0  0  0  0  0  0  0
    6.1759   -2.5992    0.7985 C   0  0  2  0  0  0  0  0  0  0  0  0
    5.5728   -1.2338    0.4028 C   0  0  0  0  0  0  0  0  0  0  0  0
    4.1354   -1.4479   -0.1139 C   0  0  2  0  0  0  0  0  0  0  0  0
    3.2776   -2.0998    0.9997 C   0  0  0  0  0  0  0  0  0  0  0  0
    4.1671   -2.3817   -1.3638 C   0  0  0  0  0  0  0  0  0  0  0  0
    2.8836   -2.5249   -1.8533 O   0  0  0  0  0  0  0  0  0  0  0  0
    2.9738   -2.6657   -3.2535 C   0  0  0  0  0  0  0  0  0  0  0  0
    4.4577   -2.4513   -3.5598 C   0  0  0  0  0  0  0  0  0  0  0  0
    4.9361   -1.8398   -2.3832 O   0  0  0  0  0  0  0  0  0  0  0  0
    4.7513   -3.7690   -0.9409 C   0  0  1  0  0  0  0  0  0  0  0  0
    6.2024   -3.5182   -0.4370 C   0  0  0  0  0  0  0  0  0  0  0  0
    2.5927   -6.4163    0.6542 H   0  0  0  0  0  0  0  0  0  0  0  0
    2.5558   -5.2319   -1.1996 H   0  0  0  0  0  0  0  0  0  0  0  0
    4.3832   -5.3379    0.4634 H   0  0  0  0  0  0  0  0  0  0  0  0
    3.2960   -3.9063    2.2200 H   0  0  0  0  0  0  0  0  0  0  0  0
    5.3445   -2.6384    2.8037 H   0  0  0  0  0  0  0  0  0  0  0  0
    5.7741   -4.2140    2.1874 H   0  0  0  0  0  0  0  0  0  0  0  0
    7.1875   -2.4436    1.1642 H   0  0  0  0  0  0  0  0  0  0  0  0
    5.5643   -0.5694    1.2718 H   0  0  0  0  0  0  0  0  0  0  0  0
    6.1849   -0.7385   -0.3493 H   0  0  0  0  0  0  0  0  0  0  0  0
    3.6982   -0.4924   -0.3947 H   0  0  0  0  0  0  0  0  0  0  0  0
    2.2465   -2.2283    0.6600 H   0  0  0  0  0  0  0  0  0  0  0  0
    3.2241   -1.4539    1.8754 H   0  0  0  0  0  0  0  0  0  0  0  0
    2.6303   -3.6617   -3.5452 H   0  0  0  0  0  0  0  0  0  0  0  0
    2.3380   -1.9368   -3.7693 H   0  0  0  0  0  0  0  0  0  0  0  0
    4.9657   -3.4068   -3.7085 H   0  0  0  0  0  0  0  0  0  0  0  0
    4.6094   -1.8377   -4.4493 H   0  0  0  0  0  0  0  0  0  0  0  0
    4.7744   -4.4603   -1.7842 H   0  0  0  0  0  0  0  0  0  0  0  0
    6.8075   -3.0721   -1.2254 H   0  0  0  0  0  0  0  0  0  0  0  0
    6.6898   -4.4633   -0.1895 H   0  0  0  0  0  0  0  0  0  0  0  0
  1  2  1  0
  1 17  1  0
  2  3  1  0
  2 18  1  0
  3 15  1  0
  3  4  1  0
  3 19  1  1
  4  9  1  0
  4  5  1  0
  4 20  1  1
  5  6  1  0
  5 21  1  0
  5 22  1  0
  6 16  1  0
  6  7  1  0
  6 23  1  1
  7  8  1  0
  7 24  1  0
  7 25  1  0
  8  9  1  0
  8 10  1  0
  8 26  1  6
  9 27  1  0
  9 28  1  0
 10 14  1  0
 10 11  1  0
 10 15  1  0
 11 12  1  0
 12 13  1  0
 12 29  1  0
 12 30  1  0
 13 14  1  0
 13 31  1  0
 13 32  1  0
 15 16  1  0
 15 33  1  6
 16 34  1  0
 16 35  1  0
M  END
>  <i_m_ct_stereo_status>  (353) 
1

>  <s_m_source_file>  (353) 
/var/tmp/pbs.5076255.sched01/tmpay8aiv4m/132fzfu5vr2.sdf

>  <i_m_source_file_index>  (353) 
33

>  <i_lp_mmshare_version>  (353) 
48012

>  <i_f3d_flags>  (353) 
0

>  <s_epik_input>  (353) 
W09IXVtOSF1bQ0BASF0oW0NAQEhdMVtDSDJdMilbQ0BIXShbQ0gyXTMpW0NIMl1bQ0BASF0yW0NIMl1bQ0BIXTNDMTRPW0NIMl1bQ0gyXU80

>  <s_epik_cmdline>  (353) 
J2VwaWtfcHl0aG9uJywgJy1waHQnLCAnMi4wJywgJy1waCcsICc3LjAnLCAnLXRuJywgJzgnLCAnLW1hJywgJzIwMCcsICctaW1hZScsICc8aW5maWxlLm1hZT4nLCAnLW9tYWUnLCAnPG91dGZpbGUubWFlPic=

>  <r_epik_Ionization_Penalty>  (353) 
0.0047345

>  <r_epik_Ionization_Penalty_Charging>  (353) 
0

>  <r_epik_Ionization_Penalty_Neutral>  (353) 
0.0047345

>  <r_epik_State_Penalty>  (353) 
0.170605

>  <r_epik_Charging_Adjusted_Penalty>  (353) 
0.170605

>  <i_epik_Tot_Q>  (353) 
0

>  <i_epik_Tot_abs_Q>  (353) 
0

>  <s_epik_Chemistry_Notes>  (353) 
This compound has a N-S or N-O group and may undergo hydrolysis at high or low pH.

>  <s_lp_Force_Field>  (353) 
OPLS3e

>  <r_lp_Energy>  (353) 
1.33365

>  <b_lp_Chiralities_Consistent>  (353) 
1

>  <s_lp_Variant>  (353) 
104:0-1

>  <s_i_glide_gridfile>  (353) 
pfpi4k_grid

>  <i_i_glide_lignum>  (353) 
33

>  <i_i_glide_rotatable_bonds>  (353) 
2

>  <r_i_docking_score>  (353) 
-4.55277

>  <r_i_glide_ligand_efficiency>  (353) 
-0.284548

>  <r_i_glide_ligand_efficiency_sa>  (353) 
-0.717017

>  <r_i_glide_ligand_efficiency_ln>  (353) 
-1.2068

>  <r_i_glide_gscore>  (353) 
-4.55277

>  <r_i_glide_lipo>  (353) 
-0.555137

>  <r_i_glide_hbond>  (353) 
-0.32

>  <r_i_glide_metal>  (353) 
-0

>  <r_i_glide_rewards>  (353) 
-1.87306

>  <r_i_glide_evdw>  (353) 
-21.2591

>  <r_i_glide_ecoul>  (353) 
-3.92099

>  <r_i_glide_erotb>  (353) 
0

>  <r_i_glide_esite>  (353) 
-0.153466

>  <r_i_glide_emodel>  (353) 
-32.4703

>  <r_i_glide_energy>  (353) 
-25.1801

>  <r_i_glide_einternal>  (353) 
0.172553

>  <r_i_glide_intrahb_reward>  (353) 
-0

>  <i_i_glide_confnum>  (353) 
4

>  <i_i_glide_posenum>  (353) 
14

>  <r_i_glide_eff_state_penalty>  (353) 
0

>  <ligand_id>  (353) 
104

>  <original_smiles>  (353) 
ONC1C2CC3CC(C2)C2(OCCO2)C1C3

>  <smiles>  (353) 
[H]ON([H])C1([H])C2([H])C([H])([H])C3([H])C([H])([H])C([H])(C2([H])[H])C2(OC([H])([H])C([H])([H])O2)C1([H])C3([H])[H]

$$$$
104:0:2
     RDKit          3D

 35 38  0  0  1  0  0  0  0  0999 V2000
    1.8098   -4.7433   -0.7039 O   0  0  0  0  0  0  0  0  0  0  0  0
    2.2361   -3.6433    0.1205 N   0  0  0  0  0  0  0  0  0  0  0  0
    3.6276   -3.8518    0.4635 C   0  0  2  0  0  0  0  0  0  0  0  0
    4.0193   -2.8759    1.5907 C   0  0  1  0  0  0  0  0  0  0  0  0
    5.4567   -3.1958    2.0339 C   0  0  0  0  0  0  0  0  0  0  0  0
    6.4124   -3.0042    0.8422 C   0  0  2  0  0  0  0  0  0  0  0  0
    6.3444   -1.5518    0.3402 C   0  0  0  0  0  0  0  0  0  0  0  0
    4.9019   -1.2244   -0.1025 C   0  0  2  0  0  0  0  0  0  0  0  0
    3.9332   -1.4159    1.0851 C   0  0  0  0  0  0  0  0  0  0  0  0
    4.5044   -2.1838   -1.2508 C   0  0  0  0  0  0  0  0  0  0  0  0
    3.2175   -1.8780   -1.6760 O   0  0  0  0  0  0  0  0  0  0  0  0
    3.2159   -1.9231   -3.0796 C   0  0  0  0  0  0  0  0  0  0  0  0
    4.6079   -1.3987   -3.3324 C   0  0  0  0  0  0  0  0  0  0  0  0
    5.3711   -2.0154   -2.3232 O   0  0  0  0  0  0  0  0  0  0  0  0
    4.5714   -3.6595   -0.7582 C   0  0  1  0  0  0  0  0  0  0  0  0
    6.0202   -3.9542   -0.3111 C   0  0  0  0  0  0  0  0  0  0  0  0
    2.4753   -4.8198   -1.3836 H   0  0  0  0  0  0  0  0  0  0  0  0
    2.1250   -2.8232   -0.4836 H   0  0  0  0  0  0  0  0  0  0  0  0
    3.7107   -4.8671    0.8569 H   0  0  0  0  0  0  0  0  0  0  0  0
    3.3544   -3.0044    2.4445 H   0  0  0  0  0  0  0  0  0  0  0  0
    5.7618   -2.5543    2.8612 H   0  0  0  0  0  0  0  0  0  0  0  0
    5.5237   -4.2229    2.3963 H   0  0  0  0  0  0  0  0  0  0  0  0
    7.4311   -3.2214    1.1570 H   0  0  0  0  0  0  0  0  0  0  0  0
    6.6546   -0.8627    1.1256 H   0  0  0  0  0  0  0  0  0  0  0  0
    7.0407   -1.4269   -0.4851 H   0  0  0  0  0  0  0  0  0  0  0  0
    4.8330   -0.2055   -0.4773 H   0  0  0  0  0  0  0  0  0  0  0  0
    2.9149   -1.1544    0.7899 H   0  0  0  0  0  0  0  0  0  0  0  0
    4.1858   -0.7277    1.8929 H   0  0  0  0  0  0  0  0  0  0  0  0
    3.0778   -2.9434   -3.4399 H   0  0  0  0  0  0  0  0  0  0  0  0
    2.4483   -1.2825   -3.5118 H   0  0  0  0  0  0  0  0  0  0  0  0
    4.9787   -1.6340   -4.3193 H   0  0  0  0  0  0  0  0  0  0  0  0
    4.6185   -0.3199   -3.1919 H   0  0  0  0  0  0  0  0  0  0  0  0
    4.3023   -4.3153   -1.5907 H   0  0  0  0  0  0  0  0  0  0  0  0
    6.7099   -3.8453   -1.1505 H   0  0  0  0  0  0  0  0  0  0  0  0
    6.1051   -4.9924    0.0170 H   0  0  0  0  0  0  0  0  0  0  0  0
  1  2  1  0
  1 17  1  0
  2  3  1  0
  2 18  1  0
  3 15  1  0
  3  4  1  0
  3 19  1  1
  4  9  1  0
  4  5  1  0
  4 20  1  1
  5  6  1  0
  5 21  1  0
  5 22  1  0
  6 16  1  0
  6  7  1  0
  6 23  1  1
  7  8  1  0
  7 24  1  0
  7 25  1  0
  8  9  1  0
  8 10  1  0
  8 26  1  6
  9 27  1  0
  9 28  1  0
 10 14  1  0
 10 11  1  0
 10 15  1  0
 11 12  1  0
 12 13  1  0
 12 29  1  0
 12 30  1  0
 13 14  1  0
 13 31  1  0
 13 32  1  0
 15 16  1  0
 15 33  1  6
 16 34  1  0
 16 35  1  0
M  END
>  <i_m_ct_stereo_status>  (354) 
1

>  <s_m_source_file>  (354) 
/var/tmp/pbs.5076255.sched01/tmpay8aiv4m/132fzfu5vr2.sdf

>  <i_m_source_file_index>  (354) 
33

>  <i_lp_mmshare_version>  (354) 
48012

>  <i_f3d_flags>  (354) 
0

>  <s_epik_input>  (354) 
W09IXVtOSF1bQ0BASF0oW0NAQEhdMVtDSDJdMilbQ0BIXShbQ0gyXTMpW0NIMl1bQ0BASF0yW0NIMl1bQ0BIXTNDMTRPW0NIMl1bQ0gyXU80

>  <s_epik_cmdline>  (354) 
J2VwaWtfcHl0aG9uJywgJy1waHQnLCAnMi4wJywgJy1waCcsICc3LjAnLCAnLXRuJywgJzgnLCAnLW1hJywgJzIwMCcsICctaW1hZScsICc8aW5maWxlLm1hZT4nLCAnLW9tYWUnLCAnPG91dGZpbGUubWFlPic=

>  <r_epik_Ionization_Penalty>  (354) 
0.0047345

>  <r_epik_Ionization_Penalty_Charging>  (354) 
0

>  <r_epik_Ionization_Penalty_Neutral>  (354) 
0.0047345

>  <r_epik_State_Penalty>  (354) 
0.170605

>  <r_epik_Charging_Adjusted_Penalty>  (354) 
0.170605

>  <i_epik_Tot_Q>  (354) 
0

>  <i_epik_Tot_abs_Q>  (354) 
0

>  <s_epik_Chemistry_Notes>  (354) 
This compound has a N-S or N-O group and may undergo hydrolysis at high or low pH.

>  <s_lp_Force_Field>  (354) 
OPLS3e

>  <r_lp_Energy>  (354) 
1.33365

>  <b_lp_Chiralities_Consistent>  (354) 
1

>  <s_lp_Variant>  (354) 
104:0-1

>  <s_i_glide_gridfile>  (354) 
pfpi4k_grid

>  <i_i_glide_lignum>  (354) 
33

>  <i_i_glide_rotatable_bonds>  (354) 
2

>  <r_i_docking_score>  (354) 
-4.36723

>  <r_i_glide_ligand_efficiency>  (354) 
-0.272952

>  <r_i_glide_ligand_efficiency_sa>  (354) 
-0.687795

>  <r_i_glide_ligand_efficiency_ln>  (354) 
-1.15762

>  <r_i_glide_gscore>  (354) 
-4.36723

>  <r_i_glide_lipo>  (354) 
-0.308583

>  <r_i_glide_hbond>  (354) 
-0.0392212

>  <r_i_glide_metal>  (354) 
-0

>  <r_i_glide_rewards>  (354) 
-2.37306

>  <r_i_glide_evdw>  (354) 
-14.838

>  <r_i_glide_ecoul>  (354) 
-4.94811

>  <r_i_glide_erotb>  (354) 
0

>  <r_i_glide_esite>  (354) 
-0.162242

>  <r_i_glide_emodel>  (354) 
-31.7605

>  <r_i_glide_energy>  (354) 
-19.7861

>  <r_i_glide_einternal>  (354) 
0.416225

>  <r_i_glide_intrahb_reward>  (354) 
-0.5

>  <i_i_glide_confnum>  (354) 
6

>  <i_i_glide_posenum>  (354) 
12

>  <r_i_glide_eff_state_penalty>  (354) 
0

>  <ligand_id>  (354) 
104

>  <original_smiles>  (354) 
ONC1C2CC3CC(C2)C2(OCCO2)C1C3

>  <smiles>  (354) 
[H]ON([H])C1([H])C2([H])C([H])([H])C3([H])C([H])([H])C([H])(C2([H])[H])C2(OC([H])([H])C([H])([H])O2)C1([H])C3([H])[H]

$$$$
104:1:0
     RDKit          3D

 35 38  0  0  1  0  0  0  0  0999 V2000
    1.5923   -5.4922    0.5114 O   0  0  0  0  0  0  0  0  0  0  0  0
    2.4664   -4.8837   -0.3213 N   0  0  0  0  0  0  0  0  0  0  0  0
    3.8280   -4.5835    0.2719 C   0  0  2  0  0  0  0  0  0  0  0  0
    3.7185   -3.5131    1.3859 C   0  0  1  0  0  0  0  0  0  0  0  0
    5.1173   -3.2911    2.0042 C   0  0  0  0  0  0  0  0  0  0  0  0
    6.0955   -2.7996    0.9232 C   0  0  2  0  0  0  0  0  0  0  0  0
    5.5992   -1.4670    0.3366 C   0  0  0  0  0  0  0  0  0  0  0  0
    4.1992   -1.6655   -0.2698 C   0  0  2  0  0  0  0  0  0  0  0  0
    3.2104   -2.1832    0.7905 C   0  0  0  0  0  0  0  0  0  0  0  0
    4.2905   -2.7210   -1.4259 C   0  0  0  0  0  0  0  0  0  0  0  0
    3.0496   -2.9048   -2.0251 O   0  0  0  0  0  0  0  0  0  0  0  0
    2.9241   -1.8542   -2.9542 C   0  0  0  0  0  0  0  0  0  0  0  0
    4.3599   -1.6630   -3.4134 C   0  0  0  0  0  0  0  0  0  0  0  0
    5.1565   -2.2650   -2.4108 O   0  0  0  0  0  0  0  0  0  0  0  0
    4.8028   -4.0774   -0.8380 C   0  0  1  0  0  0  0  0  0  0  0  0
    6.2055   -3.8415   -0.2095 C   0  0  0  0  0  0  0  0  0  0  0  0
    2.6450   -5.4459   -1.2042 H   0  0  0  0  0  0  0  0  0  0  0  0
    4.1727   -5.5351    0.6805 H   0  0  0  0  0  0  0  0  0  0  0  0
    3.0349   -3.8478    2.1628 H   0  0  0  0  0  0  0  0  0  0  0  0
    5.0647   -2.5610    2.8118 H   0  0  0  0  0  0  0  0  0  0  0  0
    5.4830   -4.2103    2.4535 H   0  0  0  0  0  0  0  0  0  0  0  0
    7.0741   -2.6391    1.3644 H   0  0  0  0  0  0  0  0  0  0  0  0
    5.5577   -0.7031    1.1126 H   0  0  0  0  0  0  0  0  0  0  0  0
    6.2944   -1.0952   -0.4191 H   0  0  0  0  0  0  0  0  0  0  0  0
    3.8653   -0.7067   -0.6582 H   0  0  0  0  0  0  0  0  0  0  0  0
    2.2199   -2.3088    0.3529 H   0  0  0  0  0  0  0  0  0  0  0  0
    3.0868   -1.4419    1.5771 H   0  0  0  0  0  0  0  0  0  0  0  0
    2.2374   -2.0885   -3.7702 H   0  0  0  0  0  0  0  0  0  0  0  0
    2.5670   -0.9568   -2.4457 H   0  0  0  0  0  0  0  0  0  0  0  0
    4.5348   -2.1708   -4.3610 H   0  0  0  0  0  0  0  0  0  0  0  0
    4.6131   -0.6097   -3.5314 H   0  0  0  0  0  0  0  0  0  0  0  0
    4.8750   -4.8040   -1.6471 H   0  0  0  0  0  0  0  0  0  0  0  0
    6.9141   -3.5132   -0.9677 H   0  0  0  0  0  0  0  0  0  0  0  0
    6.6042   -4.7791    0.1850 H   0  0  0  0  0  0  0  0  0  0  0  0
    2.1218   -3.9621   -0.6697 H   0  0  0  0  0  0  0  0  0  0  0  0
  1  2  1  0
  2  3  1  0
  2 17  1  0
  2 35  1  0
  3 15  1  0
  3  4  1  0
  3 18  1  1
  4  9  1  0
  4  5  1  0
  4 19  1  1
  5  6  1  0
  5 20  1  0
  5 21  1  0
  6 16  1  0
  6  7  1  0
  6 22  1  1
  7  8  1  0
  7 23  1  0
  7 24  1  0
  8  9  1  0
  8 10  1  0
  8 25  1  6
  9 26  1  0
  9 27  1  0
 10 14  1  0
 10 11  1  0
 10 15  1  0
 11 12  1  0
 12 13  1  0
 12 28  1  0
 12 29  1  0
 13 14  1  0
 13 30  1  0
 13 31  1  0
 15 16  1  0
 15 32  1  6
 16 33  1  0
 16 34  1  0
M  CHG  2   1  -1   2   1
M  END
>  <i_m_ct_stereo_status>  (355) 
1

>  <s_m_source_file>  (355) 
/var/tmp/pbs.5076255.sched01/tmpay8aiv4m/132fzfu5vr2.sdf

>  <i_m_source_file_index>  (355) 
34

>  <i_lp_mmshare_version>  (355) 
48012

>  <i_f3d_flags>  (355) 
0

>  <s_epik_input>  (355) 
W09IXVtOSF1bQ0BASF0oW0NAQEhdMVtDSDJdMilbQ0BIXShbQ0gyXTMpW0NIMl1bQ0BASF0yW0NIMl1bQ0BIXTNDMTRPW0NIMl1bQ0gyXU80

>  <s_epik_cmdline>  (355) 
J2VwaWtfcHl0aG9uJywgJy1waHQnLCAnMi4wJywgJy1waCcsICc3LjAnLCAnLXRuJywgJzgnLCAnLW1hJywgJzIwMCcsICctaW1hZScsICc8aW5maWxlLm1hZT4nLCAnLW9tYWUnLCAnPG91dGZpbGUubWFlPic=

>  <r_epik_Ionization_Penalty>  (355) 
0.013357

>  <r_epik_Ionization_Penalty_Charging>  (355) 
0.013357

>  <r_epik_Ionization_Penalty_Neutral>  (355) 
1.36426e-13

>  <r_epik_State_Penalty>  (355) 
0.83128

>  <r_epik_Charging_Adjusted_Penalty>  (355) 
0.844637

>  <i_epik_Tot_Q>  (355) 
0

>  <i_epik_Tot_abs_Q>  (355) 
2

>  <s_lp_Force_Field>  (355) 
OPLS3e

>  <r_lp_Energy>  (355) 
6.73602

>  <b_lp_Chiralities_Consistent>  (355) 
1

>  <s_lp_Variant>  (355) 
104:0-2

>  <s_i_glide_gridfile>  (355) 
pfpi4k_grid

>  <i_i_glide_lignum>  (355) 
34

>  <i_i_glide_rotatable_bonds>  (355) 
1

>  <r_i_docking_score>  (355) 
-5.50376

>  <r_i_glide_ligand_efficiency>  (355) 
-0.343985

>  <r_i_glide_ligand_efficiency_sa>  (355) 
-0.866788

>  <r_i_glide_ligand_efficiency_ln>  (355) 
-1.45888

>  <r_i_glide_gscore>  (355) 
-5.50376

>  <r_i_glide_lipo>  (355) 
-0.396192

>  <r_i_glide_hbond>  (355) 
-0.438697

>  <r_i_glide_metal>  (355) 
-0

>  <r_i_glide_rewards>  (355) 
-2.37306

>  <r_i_glide_evdw>  (355) 
-18.4061

>  <r_i_glide_ecoul>  (355) 
-8.58414

>  <r_i_glide_erotb>  (355) 
0

>  <r_i_glide_esite>  (355) 
-0.0878831

>  <r_i_glide_emodel>  (355) 
-42.0947

>  <r_i_glide_energy>  (355) 
-26.9902

>  <r_i_glide_einternal>  (355) 
0.065083

>  <r_i_glide_intrahb_reward>  (355) 
-0.5

>  <i_i_glide_confnum>  (355) 
5

>  <i_i_glide_posenum>  (355) 
23

>  <r_i_glide_eff_state_penalty>  (355) 
0

>  <ligand_id>  (355) 
104

>  <original_smiles>  (355) 
ONC1C2CC3CC(C2)C2(OCCO2)C1C3

>  <smiles>  (355) 
[H]C1([H])OC2(OC1([H])[H])C1([H])C([H])([H])C3([H])C([H])([H])C([H])(C1([H])[H])C([H])([N+]([H])([H])[O-])C2([H])C3([H])[H]

$$$$
104:1:1
     RDKit          3D

 35 38  0  0  1  0  0  0  0  0999 V2000
    7.7737   -2.2589   -1.4317 O   0  0  0  0  0  0  0  0  0  0  0  0
    6.7451   -3.0588   -1.1605 N   0  0  0  0  0  0  0  0  0  0  0  0
    5.8687   -2.6205   -0.0210 C   0  0  2  0  0  0  0  0  0  0  0  0
    5.2461   -3.8461    0.6672 C   0  0  1  0  0  0  0  0  0  0  0  0
    4.4070   -3.3487    1.8664 C   0  0  0  0  0  0  0  0  0  0  0  0
    3.2917   -2.4250    1.3561 C   0  0  2  0  0  0  0  0  0  0  0  0
    2.4330   -3.2402    0.4036 C   0  0  0  0  0  0  0  0  0  0  0  0
    3.2089   -3.6797   -0.8228 C   0  0  2  0  0  0  0  0  0  0  0  0
    4.3435   -4.6160   -0.3336 C   0  0  0  0  0  0  0  0  0  0  0  0
    3.8442   -2.4524   -1.5645 C   0  0  0  0  0  0  0  0  0  0  0  0
    4.5264   -2.9036   -2.6728 O   0  0  0  0  0  0  0  0  0  0  0  0
    4.3455   -1.9628   -3.6933 C   0  0  0  0  0  0  0  0  0  0  0  0
    3.4145   -0.8920   -3.1325 C   0  0  0  0  0  0  0  0  0  0  0  0
    2.8610   -1.6100   -2.0659 O   0  0  0  0  0  0  0  0  0  0  0  0
    4.7731   -1.6692   -0.5562 C   0  0  1  0  0  0  0  0  0  0  0  0
    3.8624   -1.2122    0.6181 C   0  0  0  0  0  0  0  0  0  0  0  0
    6.0984   -3.1888   -1.9515 H   0  0  0  0  0  0  0  0  0  0  0  0
    6.5289   -2.1192    0.6911 H   0  0  0  0  0  0  0  0  0  0  0  0
    6.0303   -4.5119    1.0498 H   0  0  0  0  0  0  0  0  0  0  0  0
    3.9627   -4.1833    2.4084 H   0  0  0  0  0  0  0  0  0  0  0  0
    5.0297   -2.8046    2.5910 H   0  0  0  0  0  0  0  0  0  0  0  0
    2.6747   -2.1206    2.1876 H   0  0  0  0  0  0  0  0  0  0  0  0
    2.0993   -4.1408    0.9259 H   0  0  0  0  0  0  0  0  0  0  0  0
    1.5733   -2.6599    0.1196 H   0  0  0  0  0  0  0  0  0  0  0  0
    2.5565   -4.1969   -1.5098 H   0  0  0  0  0  0  0  0  0  0  0  0
    4.9056   -5.0374   -1.1723 H   0  0  0  0  0  0  0  0  0  0  0  0
    3.9045   -5.4824    0.1748 H   0  0  0  0  0  0  0  0  0  0  0  0
    5.3267   -1.5742   -3.8652 H   0  0  0  0  0  0  0  0  0  0  0  0
    3.9336   -2.3934   -4.6201 H   0  0  0  0  0  0  0  0  0  0  0  0
    3.9609   -0.0306   -2.7473 H   0  0  0  0  0  0  0  0  0  0  0  0
    2.6854   -0.5073   -3.8445 H   0  0  0  0  0  0  0  0  0  0  0  0
    5.2495   -0.8134   -1.0198 H   0  0  0  0  0  0  0  0  0  0  0  0
    3.0473   -0.5846    0.2544 H   0  0  0  0  0  0  0  0  0  0  0  0
    4.4205   -0.5739    1.3080 H   0  0  0  0  0  0  0  0  0  0  0  0
    7.0670   -4.0154   -0.9233 H   0  0  0  0  0  0  0  0  0  0  0  0
  1  2  1  0
  2  3  1  0
  2 17  1  0
  2 35  1  0
  3 15  1  0
  3  4  1  0
  3 18  1  1
  4  9  1  0
  4  5  1  0
  4 19  1  1
  5  6  1  0
  5 20  1  0
  5 21  1  0
  6 16  1  0
  6  7  1  0
  6 22  1  1
  7  8  1  0
  7 23  1  0
  7 24  1  0
  8  9  1  0
  8 10  1  0
  8 25  1  6
  9 26  1  0
  9 27  1  0
 10 14  1  0
 10 11  1  0
 10 15  1  0
 11 12  1  0
 12 13  1  0
 12 28  1  0
 12 29  1  0
 13 14  1  0
 13 30  1  0
 13 31  1  0
 15 16  1  0
 15 32  1  6
 16 33  1  0
 16 34  1  0
M  CHG  2   1  -1   2   1
M  END
>  <i_m_ct_stereo_status>  (356) 
1

>  <s_m_source_file>  (356) 
/var/tmp/pbs.5076255.sched01/tmpay8aiv4m/132fzfu5vr2.sdf

>  <i_m_source_file_index>  (356) 
34

>  <i_lp_mmshare_version>  (356) 
48012

>  <i_f3d_flags>  (356) 
0

>  <s_epik_input>  (356) 
W09IXVtOSF1bQ0BASF0oW0NAQEhdMVtDSDJdMilbQ0BIXShbQ0gyXTMpW0NIMl1bQ0BASF0yW0NIMl1bQ0BIXTNDMTRPW0NIMl1bQ0gyXU80

>  <s_epik_cmdline>  (356) 
J2VwaWtfcHl0aG9uJywgJy1waHQnLCAnMi4wJywgJy1waCcsICc3LjAnLCAnLXRuJywgJzgnLCAnLW1hJywgJzIwMCcsICctaW1hZScsICc8aW5maWxlLm1hZT4nLCAnLW9tYWUnLCAnPG91dGZpbGUubWFlPic=

>  <r_epik_Ionization_Penalty>  (356) 
0.013357

>  <r_epik_Ionization_Penalty_Charging>  (356) 
0.013357

>  <r_epik_Ionization_Penalty_Neutral>  (356) 
1.36426e-13

>  <r_epik_State_Penalty>  (356) 
0.83128

>  <r_epik_Charging_Adjusted_Penalty>  (356) 
0.844637

>  <i_epik_Tot_Q>  (356) 
0

>  <i_epik_Tot_abs_Q>  (356) 
2

>  <s_lp_Force_Field>  (356) 
OPLS3e

>  <r_lp_Energy>  (356) 
6.73602

>  <b_lp_Chiralities_Consistent>  (356) 
1

>  <s_lp_Variant>  (356) 
104:0-2

>  <s_i_glide_gridfile>  (356) 
pfpi4k_grid

>  <i_i_glide_lignum>  (356) 
34

>  <i_i_glide_rotatable_bonds>  (356) 
1

>  <r_i_docking_score>  (356) 
-3.86319

>  <r_i_glide_ligand_efficiency>  (356) 
-0.24145

>  <r_i_glide_ligand_efficiency_sa>  (356) 
-0.608415

>  <r_i_glide_ligand_efficiency_ln>  (356) 
-1.02402

>  <r_i_glide_gscore>  (356) 
-3.86319

>  <r_i_glide_lipo>  (356) 
-0.276662

>  <r_i_glide_hbond>  (356) 
-0.16

>  <r_i_glide_metal>  (356) 
-0

>  <r_i_glide_rewards>  (356) 
-2.37306

>  <r_i_glide_evdw>  (356) 
-13.1506

>  <r_i_glide_ecoul>  (356) 
-2.42045

>  <r_i_glide_erotb>  (356) 
0

>  <r_i_glide_esite>  (356) 
-0.0328711

>  <r_i_glide_emodel>  (356) 
-25.9351

>  <r_i_glide_energy>  (356) 
-15.5711

>  <r_i_glide_einternal>  (356) 
1.75381

>  <r_i_glide_intrahb_reward>  (356) 
-0.5

>  <i_i_glide_confnum>  (356) 
4

>  <i_i_glide_posenum>  (356) 
7

>  <r_i_glide_eff_state_penalty>  (356) 
0

>  <ligand_id>  (356) 
104

>  <original_smiles>  (356) 
ONC1C2CC3CC(C2)C2(OCCO2)C1C3

>  <smiles>  (356) 
[H]C1([H])OC2(OC1([H])[H])C1([H])C([H])([H])C3([H])C([H])([H])C([H])(C1([H])[H])C([H])([N+]([H])([H])[O-])C2([H])C3([H])[H]

$$$$
104:1:2
     RDKit          3D

 35 38  0  0  1  0  0  0  0  0999 V2000
    1.6939   -4.6722   -0.7158 O   0  0  0  0  0  0  0  0  0  0  0  0
    2.2340   -3.6513   -0.0200 N   0  0  0  0  0  0  0  0  0  0  0  0
    3.6590   -3.8656    0.4007 C   0  0  2  0  0  0  0  0  0  0  0  0
    3.9845   -2.9410    1.5953 C   0  0  1  0  0  0  0  0  0  0  0  0
    5.4293   -3.2168    2.0540 C   0  0  0  0  0  0  0  0  0  0  0  0
    6.3990   -2.9203    0.8956 C   0  0  2  0  0  0  0  0  0  0  0  0
    6.2738   -1.4421    0.4769 C   0  0  0  0  0  0  0  0  0  0  0  0
    4.8286   -1.1609    0.0194 C   0  0  2  0  0  0  0  0  0  0  0  0
    3.8376   -1.4644    1.1664 C   0  0  0  0  0  0  0  0  0  0  0  0
    4.4997   -2.0749   -1.1927 C   0  0  0  0  0  0  0  0  0  0  0  0
    3.2110   -1.8003   -1.6250 O   0  0  0  0  0  0  0  0  0  0  0  0
    3.2396   -1.7560   -3.0277 C   0  0  0  0  0  0  0  0  0  0  0  0
    4.6076   -1.1626   -3.2324 C   0  0  0  0  0  0  0  0  0  0  0  0
    5.3757   -1.8089   -2.2422 O   0  0  0  0  0  0  0  0  0  0  0  0
    4.6231   -3.5737   -0.7814 C   0  0  1  0  0  0  0  0  0  0  0  0
    6.0778   -3.8240   -0.3165 C   0  0  0  0  0  0  0  0  0  0  0  0
    2.2306   -2.7430   -0.5419 H   0  0  0  0  0  0  0  0  0  0  0  0
    3.7135   -4.9079    0.7229 H   0  0  0  0  0  0  0  0  0  0  0  0
    3.3083   -3.1503    2.4225 H   0  0  0  0  0  0  0  0  0  0  0  0
    5.6824   -2.6078    2.9197 H   0  0  0  0  0  0  0  0  0  0  0  0
    5.5361   -4.2540    2.3707 H   0  0  0  0  0  0  0  0  0  0  0  0
    7.4164   -3.1056    1.2264 H   0  0  0  0  0  0  0  0  0  0  0  0
    6.5288   -0.7901    1.3165 H   0  0  0  0  0  0  0  0  0  0  0  0
    6.9818   -1.2161   -0.3197 H   0  0  0  0  0  0  0  0  0  0  0  0
    4.7150   -0.1262   -0.2952 H   0  0  0  0  0  0  0  0  0  0  0  0
    2.8148   -1.2327    0.8674 H   0  0  0  0  0  0  0  0  0  0  0  0
    4.0406   -0.8133    2.0163 H   0  0  0  0  0  0  0  0  0  0  0  0
    3.1460   -2.7601   -3.4451 H   0  0  0  0  0  0  0  0  0  0  0  0
    2.4520   -1.1255   -3.4269 H   0  0  0  0  0  0  0  0  0  0  0  0
    4.9915   -1.3255   -4.2364 H   0  0  0  0  0  0  0  0  0  0  0  0
    4.5890   -0.0925   -3.0283 H   0  0  0  0  0  0  0  0  0  0  0  0
    4.3758   -4.1976   -1.6405 H   0  0  0  0  0  0  0  0  0  0  0  0
    6.7784   -3.6382   -1.1307 H   0  0  0  0  0  0  0  0  0  0  0  0
    6.2077   -4.8725   -0.0444 H   0  0  0  0  0  0  0  0  0  0  0  0
    1.7183   -3.4720    0.8648 H   0  0  0  0  0  0  0  0  0  0  0  0
  1  2  1  0
  2  3  1  0
  2 17  1  0
  2 35  1  0
  3 15  1  0
  3  4  1  0
  3 18  1  1
  4  9  1  0
  4  5  1  0
  4 19  1  1
  5  6  1  0
  5 20  1  0
  5 21  1  0
  6 16  1  0
  6  7  1  0
  6 22  1  1
  7  8  1  0
  7 23  1  0
  7 24  1  0
  8  9  1  0
  8 10  1  0
  8 25  1  6
  9 26  1  0
  9 27  1  0
 10 14  1  0
 10 11  1  0
 10 15  1  0
 11 12  1  0
 12 13  1  0
 12 28  1  0
 12 29  1  0
 13 14  1  0
 13 30  1  0
 13 31  1  0
 15 16  1  0
 15 32  1  6
 16 33  1  0
 16 34  1  0
M  CHG  2   1  -1   2   1
M  END
>  <i_m_ct_stereo_status>  (357) 
1

>  <s_m_source_file>  (357) 
/var/tmp/pbs.5076255.sched01/tmpay8aiv4m/132fzfu5vr2.sdf

>  <i_m_source_file_index>  (357) 
34

>  <i_lp_mmshare_version>  (357) 
48012

>  <i_f3d_flags>  (357) 
0

>  <s_epik_input>  (357) 
W09IXVtOSF1bQ0BASF0oW0NAQEhdMVtDSDJdMilbQ0BIXShbQ0gyXTMpW0NIMl1bQ0BASF0yW0NIMl1bQ0BIXTNDMTRPW0NIMl1bQ0gyXU80

>  <s_epik_cmdline>  (357) 
J2VwaWtfcHl0aG9uJywgJy1waHQnLCAnMi4wJywgJy1waCcsICc3LjAnLCAnLXRuJywgJzgnLCAnLW1hJywgJzIwMCcsICctaW1hZScsICc8aW5maWxlLm1hZT4nLCAnLW9tYWUnLCAnPG91dGZpbGUubWFlPic=

>  <r_epik_Ionization_Penalty>  (357) 
0.013357

>  <r_epik_Ionization_Penalty_Charging>  (357) 
0.013357

>  <r_epik_Ionization_Penalty_Neutral>  (357) 
1.36426e-13

>  <r_epik_State_Penalty>  (357) 
0.83128

>  <r_epik_Charging_Adjusted_Penalty>  (357) 
0.844637

>  <i_epik_Tot_Q>  (357) 
0

>  <i_epik_Tot_abs_Q>  (357) 
2

>  <s_lp_Force_Field>  (357) 
OPLS3e

>  <r_lp_Energy>  (357) 
6.73602

>  <b_lp_Chiralities_Consistent>  (357) 
1

>  <s_lp_Variant>  (357) 
104:0-2

>  <s_i_glide_gridfile>  (357) 
pfpi4k_grid

>  <i_i_glide_lignum>  (357) 
34

>  <i_i_glide_rotatable_bonds>  (357) 
1

>  <r_i_docking_score>  (357) 
-3.79149

>  <r_i_glide_ligand_efficiency>  (357) 
-0.236968

>  <r_i_glide_ligand_efficiency_sa>  (357) 
-0.597122

>  <r_i_glide_ligand_efficiency_ln>  (357) 
-1.00501

>  <r_i_glide_gscore>  (357) 
-3.79149

>  <r_i_glide_lipo>  (357) 
-0.319808

>  <r_i_glide_hbond>  (357) 
-0.046784

>  <r_i_glide_metal>  (357) 
-0

>  <r_i_glide_rewards>  (357) 
-2.37306

>  <r_i_glide_evdw>  (357) 
-16.254

>  <r_i_glide_ecoul>  (357) 
-1.04569

>  <r_i_glide_erotb>  (357) 
0

>  <r_i_glide_esite>  (357) 
-0.0822775

>  <r_i_glide_emodel>  (357) 
-28.7435

>  <r_i_glide_energy>  (357) 
-17.2997

>  <r_i_glide_einternal>  (357) 
0.609556

>  <r_i_glide_intrahb_reward>  (357) 
-0.5

>  <i_i_glide_confnum>  (357) 
3

>  <i_i_glide_posenum>  (357) 
12

>  <r_i_glide_eff_state_penalty>  (357) 
0

>  <ligand_id>  (357) 
104

>  <original_smiles>  (357) 
ONC1C2CC3CC(C2)C2(OCCO2)C1C3

>  <smiles>  (357) 
[H]C1([H])OC2(OC1([H])[H])C1([H])C([H])([H])C3([H])C([H])([H])C([H])(C1([H])[H])C([H])([N+]([H])([H])[O-])C2([H])C3([H])[H]

$$$$
105:0:0
     RDKit          3D

 56 60  0  0  1  0  0  0  0  0999 V2000
    4.0477   -7.0016    6.8721 O   0  0  0  0  0  0  0  0  0  0  0  0
    3.0921   -7.2396    6.1325 C   0  0  0  0  0  0  0  0  0  0  0  0
    3.0601   -8.3192    5.3052 N   0  0  0  0  0  0  0  0  0  0  0  0
    4.2211   -9.1992    5.0838 C   0  0  0  0  0  0  0  0  0  0  0  0
    3.9152  -10.6378    5.5676 C   0  0  0  0  0  0  0  0  0  0  0  0
    2.6200  -11.1668    5.0357 N   0  0  2  0  0  0  0  0  0  0  0  0
    2.6216  -11.6183    3.6128 C   0  0  0  0  0  0  0  0  0  0  0  0
    1.1519  -11.5757    3.1761 C   0  0  0  0  0  0  0  0  0  0  0  0
    0.4045  -10.8443    4.2841 C   0  0  0  0  0  0  0  0  0  0  0  0
    1.4862  -10.2163    5.1444 C   0  0  2  0  0  0  0  0  0  0  0  0
    1.8659   -8.8200    4.6111 C   0  0  0  0  0  0  0  0  0  0  0  0
    1.9630   -6.4965    6.1709 N   0  0  0  0  0  0  0  0  0  0  0  0
    1.3557   -5.8645    4.9934 C   0  0  2  0  0  0  0  0  0  0  0  0
    2.1098   -4.5987    4.6481 C   0  0  0  0  0  0  0  0  0  0  0  0
    1.9523   -3.4459    5.3485 C   0  0  0  0  0  0  0  0  0  0  0  0
    2.7172   -2.2258    5.0020 C   0  0  0  0  0  0  0  0  0  0  0  0
    2.2945   -0.9618    5.4658 C   0  0  0  0  0  0  0  0  0  0  0  0
    3.0469    0.1774    5.1321 C   0  0  0  0  0  0  0  0  0  0  0  0
    4.1967    0.0141    4.3333 C   0  0  0  0  0  0  0  0  0  0  0  0
    4.6156   -1.1805    3.8763 N   0  0  0  0  0  0  0  0  0  0  0  0
    3.8899   -2.2696    4.2021 C   0  0  0  0  0  0  0  0  0  0  0  0
    0.9766   -3.4600    6.5350 C   0  0  0  0  0  0  0  0  0  0  0  0
    0.3597   -4.8580    6.8281 C   0  0  1  0  0  0  0  0  0  0  0  0
   -0.0278   -5.5033    5.5071 C   0  0  0  0  0  0  0  0  0  0  0  0
    1.4076   -5.8593    7.3813 C   0  0  1  0  0  0  0  0  0  0  0  0
    0.7805   -6.8980    8.3511 C   0  0  0  0  0  0  0  0  0  0  0  0
    0.2144   -6.2712    9.4880 O   0  0  0  0  0  0  0  0  0  0  0  0
    4.4365   -9.2054    4.0170 H   0  0  0  0  0  0  0  0  0  0  0  0
    5.1283   -8.8302    5.5698 H   0  0  0  0  0  0  0  0  0  0  0  0
    4.7258  -11.3216    5.3092 H   0  0  0  0  0  0  0  0  0  0  0  0
    3.8348  -10.6285    6.6488 H   0  0  0  0  0  0  0  0  0  0  0  0
    3.1984  -10.9181    3.0019 H   0  0  0  0  0  0  0  0  0  0  0  0
    3.0779  -12.6001    3.5149 H   0  0  0  0  0  0  0  0  0  0  0  0
    1.0332  -11.0469    2.2347 H   0  0  0  0  0  0  0  0  0  0  0  0
    0.7378  -12.5728    3.0355 H   0  0  0  0  0  0  0  0  0  0  0  0
   -0.3013  -10.1115    3.8902 H   0  0  0  0  0  0  0  0  0  0  0  0
   -0.1504  -11.5798    4.8648 H   0  0  0  0  0  0  0  0  0  0  0  0
    1.1687  -10.1506    6.1793 H   0  0  0  0  0  0  0  0  0  0  0  0
    0.9824   -8.2217    4.7196 H   0  0  0  0  0  0  0  0  0  0  0  0
    2.0867   -8.8562    3.5392 H   0  0  0  0  0  0  0  0  0  0  0  0
    1.2944   -6.4951    4.1176 H   0  0  0  0  0  0  0  0  0  0  0  0
    2.7668   -4.6694    3.8043 H   0  0  0  0  0  0  0  0  0  0  0  0
    1.4055   -0.8589    6.0756 H   0  0  0  0  0  0  0  0  0  0  0  0
    2.7522    1.1535    5.4790 H   0  0  0  0  0  0  0  0  0  0  0  0
    4.7983    0.8655    4.0617 H   0  0  0  0  0  0  0  0  0  0  0  0
    4.2874   -3.1953    3.8143 H   0  0  0  0  0  0  0  0  0  0  0  0
    1.5056   -3.1057    7.4228 H   0  0  0  0  0  0  0  0  0  0  0  0
    0.1637   -2.7643    6.3124 H   0  0  0  0  0  0  0  0  0  0  0  0
   -0.4994   -4.7494    7.4925 H   0  0  0  0  0  0  0  0  0  0  0  0
   -0.5687   -4.8390    4.8325 H   0  0  0  0  0  0  0  0  0  0  0  0
   -0.6165   -6.4053    5.6598 H   0  0  0  0  0  0  0  0  0  0  0  0
    2.1992   -5.3249    7.9100 H   0  0  0  0  0  0  0  0  0  0  0  0
   -0.0091   -7.4719    7.8643 H   0  0  0  0  0  0  0  0  0  0  0  0
    1.5228   -7.6159    8.7009 H   0  0  0  0  0  0  0  0  0  0  0  0
    0.9016   -5.8364    9.9743 H   0  0  0  0  0  0  0  0  0  0  0  0
    2.3632  -11.9709    5.6095 H   0  0  0  0  0  0  0  0  0  0  0  0
  1  2  2  0
  2  3  1  0
  2 12  1  0
  3 11  1  0
  3  4  1  0
  4  5  1  0
  4 28  1  0
  4 29  1  0
  5  6  1  0
  5 30  1  0
  5 31  1  0
  6 10  1  0
  6  7  1  0
  6 56  1  1
  7  8  1  0
  7 32  1  0
  7 33  1  0
  8  9  1  0
  8 34  1  0
  8 35  1  0
  9 10  1  0
  9 36  1  0
  9 37  1  0
 10 11  1  0
 10 38  1  1
 11 39  1  0
 11 40  1  0
 12 25  1  0
 12 13  1  0
 13 24  1  0
 13 14  1  0
 13 41  1  6
 14 15  2  0
 14 42  1  0
 15 16  1  0
 15 22  1  0
 16 21  1  0
 16 17  2  0
 17 18  1  0
 17 43  1  0
 18 19  2  0
 18 44  1  0
 19 20  1  0
 19 45  1  0
 20 21  2  0
 21 46  1  0
 22 23  1  0
 22 47  1  0
 22 48  1  0
 23 24  1  0
 23 25  1  0
 23 49  1  1
 24 50  1  0
 24 51  1  0
 25 26  1  0
 25 52  1  1
 26 27  1  0
 26 53  1  0
 26 54  1  0
 27 55  1  0
M  CHG  1   6   1
M  END
>  <i_m_ct_stereo_status>  (358) 
1

>  <s_m_source_file>  (358) 
/var/tmp/pbs.5076255.sched01/tmpay8aiv4m/132fzfu5vr2.sdf

>  <i_m_source_file_index>  (358) 
35

>  <i_lp_mmshare_version>  (358) 
48012

>  <i_f3d_flags>  (358) 
0

>  <s_epik_input>  (358) 
W0NIMl0xW0NIMl1bQ0gyXVtDQEBIXShOMTIpW0NIMl1OKFtDSDJdW0NIMl0yKUMoPU8pTihbQ0BIXTM0KVtDQEhdKFtDSDJdW09IXSlbQ0BIXShbQ0gyXTQpW0NIMl1DKD1bQ0hdMyljNVtjSF1bY0hdW2NIXW5bY0hdNQ==

>  <s_epik_cmdline>  (358) 
J2VwaWtfcHl0aG9uJywgJy1waHQnLCAnMi4wJywgJy1waCcsICc3LjAnLCAnLXRuJywgJzgnLCAnLW1hJywgJzIwMCcsICctaW1hZScsICc8aW5maWxlLm1hZT4nLCAnLW9tYWUnLCAnPG91dGZpbGUubWFlPic=

>  <r_epik_Ionization_Penalty>  (358) 
0.029117

>  <r_epik_Ionization_Penalty_Charging>  (358) 
0.00874387

>  <r_epik_Ionization_Penalty_Neutral>  (358) 
0.0203731

>  <r_epik_State_Penalty>  (358) 
0.0230017

>  <r_epik_Charging_Adjusted_Penalty>  (358) 
0.0317456

>  <i_epik_Tot_Q>  (358) 
1

>  <i_epik_Tot_abs_Q>  (358) 
1

>  <s_lp_Force_Field>  (358) 
OPLS3e

>  <r_lp_Energy>  (358) 
70.0056

>  <b_lp_Chiralities_Consistent>  (358) 
1

>  <s_lp_Variant>  (358) 
105:0-1

>  <s_i_glide_gridfile>  (358) 
pfpi4k_grid

>  <i_i_glide_lignum>  (358) 
35

>  <i_i_glide_rotatable_bonds>  (358) 
5

>  <r_i_docking_score>  (358) 
-2.51329

>  <r_i_glide_ligand_efficiency>  (358) 
-0.0930849

>  <r_i_glide_ligand_efficiency_sa>  (358) 
-0.279255

>  <r_i_glide_ligand_efficiency_ln>  (358) 
-0.585053

>  <r_i_glide_gscore>  (358) 
-2.51329

>  <r_i_glide_lipo>  (358) 
-0.142655

>  <r_i_glide_hbond>  (358) 
-0.247155

>  <r_i_glide_metal>  (358) 
-0

>  <r_i_glide_rewards>  (358) 
-0.889905

>  <r_i_glide_evdw>  (358) 
-13.829

>  <r_i_glide_ecoul>  (358) 
-6.95318

>  <r_i_glide_erotb>  (358) 
0.564959

>  <r_i_glide_esite>  (358) 
-0.0641088

>  <r_i_glide_emodel>  (358) 
-24.7348

>  <r_i_glide_energy>  (358) 
-20.7822

>  <r_i_glide_einternal>  (358) 
1.78344

>  <r_i_glide_intrahb_reward>  (358) 
-0

>  <i_i_glide_confnum>  (358) 
1

>  <i_i_glide_posenum>  (358) 
1

>  <r_i_glide_eff_state_penalty>  (358) 
0

>  <ligand_id>  (358) 
105

>  <original_smiles>  (358) 
O=C(N1CCN2CCCC2C1)N1C2C=C(c3cccnc3)CC(C2)C1CO

>  <smiles>  (358) 
[H]OC([H])([H])C1([H])N(C(=O)N2C([H])([H])C([H])([H])[N+]3([H])C([H])([H])C([H])([H])C([H])([H])C3([H])C2([H])[H])C2([H])C([H])=C(c3c([H])nc([H])c([H])c3[H])C([H])([H])C1([H])C2([H])[H]

$$$$
105:0:1
     RDKit          3D

 56 60  0  0  1  0  0  0  0  0999 V2000
    4.9620   -6.8759    4.5539 O   0  0  0  0  0  0  0  0  0  0  0  0
    3.8967   -7.3506    4.1632 C   0  0  0  0  0  0  0  0  0  0  0  0
    3.6457   -8.6895    4.1481 N   0  0  0  0  0  0  0  0  0  0  0  0
    4.6639   -9.6982    4.4995 C   0  0  0  0  0  0  0  0  0  0  0  0
    4.2285  -10.5102    5.7445 C   0  0  0  0  0  0  0  0  0  0  0  0
    2.8391  -11.0362    5.6373 N   0  0  2  0  0  0  0  0  0  0  0  0
    2.6578  -12.2241    4.7711 C   0  0  0  0  0  0  0  0  0  0  0  0
    1.1664  -12.2284    4.3949 C   0  0  0  0  0  0  0  0  0  0  0  0
    0.6150  -10.8755    4.8505 C   0  0  0  0  0  0  0  0  0  0  0  0
    1.8518  -10.0497    5.1577 C   0  0  2  0  0  0  0  0  0  0  0  0
    2.3441   -9.3277    3.8935 C   0  0  0  0  0  0  0  0  0  0  0  0
    2.8346   -6.5674    3.8644 N   0  0  0  0  0  0  0  0  0  0  0  0
    2.2017   -6.5219    2.5411 C   0  0  2  0  0  0  0  0  0  0  0  0
    3.0350   -5.6811    1.5959 C   0  0  0  0  0  0  0  0  0  0  0  0
    3.0236   -4.3322    1.6296 C   0  0  0  0  0  0  0  0  0  0  0  0
    3.8631   -3.5328    0.7056 C   0  0  0  0  0  0  0  0  0  0  0  0
    3.5498   -2.1824    0.4489 C   0  0  0  0  0  0  0  0  0  0  0  0
    4.3763   -1.4458   -0.4248 C   0  0  0  0  0  0  0  0  0  0  0  0
    5.4672   -2.0995   -1.0227 C   0  0  0  0  0  0  0  0  0  0  0  0
    5.7795   -3.3881   -0.7981 N   0  0  0  0  0  0  0  0  0  0  0  0
    4.9872   -4.0874    0.0413 C   0  0  0  0  0  0  0  0  0  0  0  0
    2.1647   -3.6485    2.7012 C   0  0  0  0  0  0  0  0  0  0  0  0
    1.4482   -4.6376    3.6623 C   0  0  1  0  0  0  0  0  0  0  0  0
    0.8975   -5.8056    2.8503 C   0  0  0  0  0  0  0  0  0  0  0  0
    2.4472   -5.3520    4.6056 C   0  0  1  0  0  0  0  0  0  0  0  0
    1.8129   -5.6981    5.9783 C   0  0  0  0  0  0  0  0  0  0  0  0
    1.4970   -4.5210    6.6967 O   0  0  0  0  0  0  0  0  0  0  0  0
    4.7774  -10.3606    3.6389 H   0  0  0  0  0  0  0  0  0  0  0  0
    5.6515   -9.2559    4.6682 H   0  0  0  0  0  0  0  0  0  0  0  0
    4.9235  -11.3244    5.9420 H   0  0  0  0  0  0  0  0  0  0  0  0
    4.2596   -9.8449    6.6063 H   0  0  0  0  0  0  0  0  0  0  0  0
    3.2467  -12.1249    3.8590 H   0  0  0  0  0  0  0  0  0  0  0  0
    2.9874  -13.1200    5.2845 H   0  0  0  0  0  0  0  0  0  0  0  0
    1.0376  -12.3346    3.3160 H   0  0  0  0  0  0  0  0  0  0  0  0
    0.6187  -13.0390    4.8755 H   0  0  0  0  0  0  0  0  0  0  0  0
   -0.0242  -10.4208    4.0965 H   0  0  0  0  0  0  0  0  0  0  0  0
    0.0369  -11.0122    5.7588 H   0  0  0  0  0  0  0  0  0  0  0  0
    1.6457   -9.3225    5.9392 H   0  0  0  0  0  0  0  0  0  0  0  0
    1.5333   -8.6558    3.6351 H   0  0  0  0  0  0  0  0  0  0  0  0
    2.4645  -10.0179    3.0510 H   0  0  0  0  0  0  0  0  0  0  0  0
    2.0270   -7.4895    2.0733 H   0  0  0  0  0  0  0  0  0  0  0  0
    3.6132   -6.2367    0.8771 H   0  0  0  0  0  0  0  0  0  0  0  0
    2.7008   -1.6997    0.9099 H   0  0  0  0  0  0  0  0  0  0  0  0
    4.1721   -0.4074   -0.6308 H   0  0  0  0  0  0  0  0  0  0  0  0
    6.1204   -1.5649   -1.6977 H   0  0  0  0  0  0  0  0  0  0  0  0
    5.2968   -5.1096    0.1909 H   0  0  0  0  0  0  0  0  0  0  0  0
    2.7909   -2.9690    3.2785 H   0  0  0  0  0  0  0  0  0  0  0  0
    1.4178   -3.0432    2.1854 H   0  0  0  0  0  0  0  0  0  0  0  0
    0.6608   -4.1174    4.2100 H   0  0  0  0  0  0  0  0  0  0  0  0
    0.3489   -5.5148    1.9589 H   0  0  0  0  0  0  0  0  0  0  0  0
    0.2491   -6.4406    3.4550 H   0  0  0  0  0  0  0  0  0  0  0  0
    3.3260   -4.7257    4.7741 H   0  0  0  0  0  0  0  0  0  0  0  0
    0.8943   -6.2735    5.8595 H   0  0  0  0  0  0  0  0  0  0  0  0
    2.4838   -6.3003    6.5925 H   0  0  0  0  0  0  0  0  0  0  0  0
    2.2963   -4.0612    6.9062 H   0  0  0  0  0  0  0  0  0  0  0  0
    2.5097  -11.3444    6.5594 H   0  0  0  0  0  0  0  0  0  0  0  0
  1  2  2  0
  2  3  1  0
  2 12  1  0
  3 11  1  0
  3  4  1  0
  4  5  1  0
  4 28  1  0
  4 29  1  0
  5  6  1  0
  5 30  1  0
  5 31  1  0
  6 10  1  0
  6  7  1  0
  6 56  1  1
  7  8  1  0
  7 32  1  0
  7 33  1  0
  8  9  1  0
  8 34  1  0
  8 35  1  0
  9 10  1  0
  9 36  1  0
  9 37  1  0
 10 11  1  0
 10 38  1  1
 11 39  1  0
 11 40  1  0
 12 25  1  0
 12 13  1  0
 13 24  1  0
 13 14  1  0
 13 41  1  6
 14 15  2  0
 14 42  1  0
 15 16  1  0
 15 22  1  0
 16 21  1  0
 16 17  2  0
 17 18  1  0
 17 43  1  0
 18 19  2  0
 18 44  1  0
 19 20  1  0
 19 45  1  0
 20 21  2  0
 21 46  1  0
 22 23  1  0
 22 47  1  0
 22 48  1  0
 23 24  1  0
 23 25  1  0
 23 49  1  1
 24 50  1  0
 24 51  1  0
 25 26  1  0
 25 52  1  1
 26 27  1  0
 26 53  1  0
 26 54  1  0
 27 55  1  0
M  CHG  1   6   1
M  END
>  <i_m_ct_stereo_status>  (359) 
1

>  <s_m_source_file>  (359) 
/var/tmp/pbs.5076255.sched01/tmpay8aiv4m/132fzfu5vr2.sdf

>  <i_m_source_file_index>  (359) 
35

>  <i_lp_mmshare_version>  (359) 
48012

>  <i_f3d_flags>  (359) 
0

>  <s_epik_input>  (359) 
W0NIMl0xW0NIMl1bQ0gyXVtDQEBIXShOMTIpW0NIMl1OKFtDSDJdW0NIMl0yKUMoPU8pTihbQ0BIXTM0KVtDQEhdKFtDSDJdW09IXSlbQ0BIXShbQ0gyXTQpW0NIMl1DKD1bQ0hdMyljNVtjSF1bY0hdW2NIXW5bY0hdNQ==

>  <s_epik_cmdline>  (359) 
J2VwaWtfcHl0aG9uJywgJy1waHQnLCAnMi4wJywgJy1waCcsICc3LjAnLCAnLXRuJywgJzgnLCAnLW1hJywgJzIwMCcsICctaW1hZScsICc8aW5maWxlLm1hZT4nLCAnLW9tYWUnLCAnPG91dGZpbGUubWFlPic=

>  <r_epik_Ionization_Penalty>  (359) 
0.029117

>  <r_epik_Ionization_Penalty_Charging>  (359) 
0.00874387

>  <r_epik_Ionization_Penalty_Neutral>  (359) 
0.0203731

>  <r_epik_State_Penalty>  (359) 
0.0230017

>  <r_epik_Charging_Adjusted_Penalty>  (359) 
0.0317456

>  <i_epik_Tot_Q>  (359) 
1

>  <i_epik_Tot_abs_Q>  (359) 
1

>  <s_lp_Force_Field>  (359) 
OPLS3e

>  <r_lp_Energy>  (359) 
70.0056

>  <b_lp_Chiralities_Consistent>  (359) 
1

>  <s_lp_Variant>  (359) 
105:0-1

>  <s_i_glide_gridfile>  (359) 
pfpi4k_grid

>  <i_i_glide_lignum>  (359) 
35

>  <i_i_glide_rotatable_bonds>  (359) 
5

>  <r_i_docking_score>  (359) 
-2.48372

>  <r_i_glide_ligand_efficiency>  (359) 
-0.0919896

>  <r_i_glide_ligand_efficiency_sa>  (359) 
-0.275969

>  <r_i_glide_ligand_efficiency_ln>  (359) 
-0.578169

>  <r_i_glide_gscore>  (359) 
-2.48372

>  <r_i_glide_lipo>  (359) 
-0.0600907

>  <r_i_glide_hbond>  (359) 
-0.2

>  <r_i_glide_metal>  (359) 
-0

>  <r_i_glide_rewards>  (359) 
-0.889905

>  <r_i_glide_evdw>  (359) 
-19.8918

>  <r_i_glide_ecoul>  (359) 
-5.49525

>  <r_i_glide_erotb>  (359) 
0.564959

>  <r_i_glide_esite>  (359) 
-0.0798049

>  <r_i_glide_emodel>  (359) 
-30.0717

>  <r_i_glide_energy>  (359) 
-25.3871

>  <r_i_glide_einternal>  (359) 
1.68048

>  <r_i_glide_intrahb_reward>  (359) 
-0

>  <i_i_glide_confnum>  (359) 
1

>  <i_i_glide_posenum>  (359) 
22

>  <r_i_glide_eff_state_penalty>  (359) 
0

>  <ligand_id>  (359) 
105

>  <original_smiles>  (359) 
O=C(N1CCN2CCCC2C1)N1C2C=C(c3cccnc3)CC(C2)C1CO

>  <smiles>  (359) 
[H]OC([H])([H])C1([H])N(C(=O)N2C([H])([H])C([H])([H])[N+]3([H])C([H])([H])C([H])([H])C([H])([H])C3([H])C2([H])[H])C2([H])C([H])=C(c3c([H])nc([H])c([H])c3[H])C([H])([H])C1([H])C2([H])[H]

$$$$
105:0:2
     RDKit          3D

 56 60  0  0  1  0  0  0  0  0999 V2000
    5.2077   -7.0540    4.2071 O   0  0  0  0  0  0  0  0  0  0  0  0
    4.0856   -7.4504    3.9078 C   0  0  0  0  0  0  0  0  0  0  0  0
    3.7451   -8.7682    3.9342 N   0  0  0  0  0  0  0  0  0  0  0  0
    4.7139   -9.8400    4.1965 C   0  0  0  0  0  0  0  0  0  0  0  0
    4.3118  -10.6336    5.4736 C   0  0  0  0  0  0  0  0  0  0  0  0
    2.8833  -11.0650    5.4718 N   0  0  2  0  0  0  0  0  0  0  0  0
    2.5566  -12.2224    4.6140 C   0  0  0  0  0  0  0  0  0  0  0  0
    1.0421  -12.1272    4.3516 C   0  0  0  0  0  0  0  0  0  0  0  0
    0.6210  -10.7452    4.8454 C   0  0  0  0  0  0  0  0  0  0  0  0
    1.9405  -10.0184    5.0742 C   0  0  2  0  0  0  0  0  0  0  0  0
    2.3928   -9.3257    3.7870 C   0  0  0  0  0  0  0  0  0  0  0  0
    3.0678   -6.5934    3.6771 N   0  0  0  0  0  0  0  0  0  0  0  0
    2.2668   -6.5607    2.4451 C   0  0  2  0  0  0  0  0  0  0  0  0
    3.0370   -5.8664    1.3408 C   0  0  0  0  0  0  0  0  0  0  0  0
    3.1184   -4.5348    1.2681 C   0  0  0  0  0  0  0  0  0  0  0  0
    3.8698   -3.8995    0.1777 C   0  0  0  0  0  0  0  0  0  0  0  0
    3.2497   -2.9290   -0.6380 C   0  0  0  0  0  0  0  0  0  0  0  0
    4.0098   -2.3276   -1.6574 C   0  0  0  0  0  0  0  0  0  0  0  0
    5.3502   -2.7174   -1.8183 C   0  0  0  0  0  0  0  0  0  0  0  0
    5.9542   -3.6446   -1.0411 N   0  0  0  0  0  0  0  0  0  0  0  0
    5.2163   -4.2337   -0.0781 C   0  0  0  0  0  0  0  0  0  0  0  0
    2.4770   -3.6961    2.3797 C   0  0  0  0  0  0  0  0  0  0  0  0
    1.8320   -4.5499    3.5150 C   0  0  1  0  0  0  0  0  0  0  0  0
    1.0793   -5.7109    2.8823 C   0  0  0  0  0  0  0  0  0  0  0  0
    2.8890   -5.2981    4.3715 C   0  0  1  0  0  0  0  0  0  0  0  0
    2.4312   -5.4731    5.8478 C   0  0  0  0  0  0  0  0  0  0  0  0
    2.3903   -4.2241    6.5162 O   0  0  0  0  0  0  0  0  0  0  0  0
    4.7164  -10.5118    3.3383 H   0  0  0  0  0  0  0  0  0  0  0  0
    5.7434   -9.4776    4.2886 H   0  0  0  0  0  0  0  0  0  0  0  0
    4.9715  -11.4968    5.6240 H   0  0  0  0  0  0  0  0  0  0  0  0
    4.4578   -9.9741    6.3273 H   0  0  0  0  0  0  0  0  0  0  0  0
    3.0882  -12.1624    3.6562 H   0  0  0  0  0  0  0  0  0  0  0  0
    2.8636  -13.1430    5.1044 H   0  0  0  0  0  0  0  0  0  0  0  0
    0.8316  -12.2516    3.2878 H   0  0  0  0  0  0  0  0  0  0  0  0
    0.4933  -12.8983    4.8861 H   0  0  0  0  0  0  0  0  0  0  0  0
   -0.0395  -10.2387    4.1379 H   0  0  0  0  0  0  0  0  0  0  0  0
    0.0913  -10.8414    5.7950 H   0  0  0  0  0  0  0  0  0  0  0  0
    1.8403   -9.2762    5.8603 H   0  0  0  0  0  0  0  0  0  0  0  0
    1.5754   -8.6165    3.6629 H   0  0  0  0  0  0  0  0  0  0  0  0
    2.3854   -9.9980    2.9197 H   0  0  0  0  0  0  0  0  0  0  0  0
    1.9411   -7.5010    2.0140 H   0  0  0  0  0  0  0  0  0  0  0  0
    3.4757   -6.5114    0.5939 H   0  0  0  0  0  0  0  0  0  0  0  0
    2.2141   -2.6566   -0.4779 H   0  0  0  0  0  0  0  0  0  0  0  0
    3.5648   -1.5718   -2.2915 H   0  0  0  0  0  0  0  0  0  0  0  0
    5.9609   -2.2718   -2.5839 H   0  0  0  0  0  0  0  0  0  0  0  0
    5.7306   -4.9751    0.5214 H   0  0  0  0  0  0  0  0  0  0  0  0
    3.2454   -3.0492    2.8052 H   0  0  0  0  0  0  0  0  0  0  0  0
    1.7128   -3.0650    1.9248 H   0  0  0  0  0  0  0  0  0  0  0  0
    1.1789   -3.9209    4.1262 H   0  0  0  0  0  0  0  0  0  0  0  0
    0.4195   -5.4505    2.0632 H   0  0  0  0  0  0  0  0  0  0  0  0
    0.4789   -6.2421    3.6199 H   0  0  0  0  0  0  0  0  0  0  0  0
    3.8310   -4.7488    4.3728 H   0  0  0  0  0  0  0  0  0  0  0  0
    1.4349   -5.9148    5.9119 H   0  0  0  0  0  0  0  0  0  0  0  0
    3.1002   -6.1264    6.4089 H   0  0  0  0  0  0  0  0  0  0  0  0
    3.2656   -3.8717    6.5784 H   0  0  0  0  0  0  0  0  0  0  0  0
    2.6208  -11.3516    6.4130 H   0  0  0  0  0  0  0  0  0  0  0  0
  1  2  2  0
  2  3  1  0
  2 12  1  0
  3 11  1  0
  3  4  1  0
  4  5  1  0
  4 28  1  0
  4 29  1  0
  5  6  1  0
  5 30  1  0
  5 31  1  0
  6 10  1  0
  6  7  1  0
  6 56  1  1
  7  8  1  0
  7 32  1  0
  7 33  1  0
  8  9  1  0
  8 34  1  0
  8 35  1  0
  9 10  1  0
  9 36  1  0
  9 37  1  0
 10 11  1  0
 10 38  1  1
 11 39  1  0
 11 40  1  0
 12 25  1  0
 12 13  1  0
 13 24  1  0
 13 14  1  0
 13 41  1  6
 14 15  2  0
 14 42  1  0
 15 16  1  0
 15 22  1  0
 16 21  1  0
 16 17  2  0
 17 18  1  0
 17 43  1  0
 18 19  2  0
 18 44  1  0
 19 20  1  0
 19 45  1  0
 20 21  2  0
 21 46  1  0
 22 23  1  0
 22 47  1  0
 22 48  1  0
 23 24  1  0
 23 25  1  0
 23 49  1  1
 24 50  1  0
 24 51  1  0
 25 26  1  0
 25 52  1  1
 26 27  1  0
 26 53  1  0
 26 54  1  0
 27 55  1  0
M  CHG  1   6   1
M  END
>  <i_m_ct_stereo_status>  (360) 
1

>  <s_m_source_file>  (360) 
/var/tmp/pbs.5076255.sched01/tmpay8aiv4m/132fzfu5vr2.sdf

>  <i_m_source_file_index>  (360) 
35

>  <i_lp_mmshare_version>  (360) 
48012

>  <i_f3d_flags>  (360) 
0

>  <s_epik_input>  (360) 
W0NIMl0xW0NIMl1bQ0gyXVtDQEBIXShOMTIpW0NIMl1OKFtDSDJdW0NIMl0yKUMoPU8pTihbQ0BIXTM0KVtDQEhdKFtDSDJdW09IXSlbQ0BIXShbQ0gyXTQpW0NIMl1DKD1bQ0hdMyljNVtjSF1bY0hdW2NIXW5bY0hdNQ==

>  <s_epik_cmdline>  (360) 
J2VwaWtfcHl0aG9uJywgJy1waHQnLCAnMi4wJywgJy1waCcsICc3LjAnLCAnLXRuJywgJzgnLCAnLW1hJywgJzIwMCcsICctaW1hZScsICc8aW5maWxlLm1hZT4nLCAnLW9tYWUnLCAnPG91dGZpbGUubWFlPic=

>  <r_epik_Ionization_Penalty>  (360) 
0.029117

>  <r_epik_Ionization_Penalty_Charging>  (360) 
0.00874387

>  <r_epik_Ionization_Penalty_Neutral>  (360) 
0.0203731

>  <r_epik_State_Penalty>  (360) 
0.0230017

>  <r_epik_Charging_Adjusted_Penalty>  (360) 
0.0317456

>  <i_epik_Tot_Q>  (360) 
1

>  <i_epik_Tot_abs_Q>  (360) 
1

>  <s_lp_Force_Field>  (360) 
OPLS3e

>  <r_lp_Energy>  (360) 
70.0056

>  <b_lp_Chiralities_Consistent>  (360) 
1

>  <s_lp_Variant>  (360) 
105:0-1

>  <s_i_glide_gridfile>  (360) 
pfpi4k_grid

>  <i_i_glide_lignum>  (360) 
35

>  <i_i_glide_rotatable_bonds>  (360) 
5

>  <r_i_docking_score>  (360) 
-2.47272

>  <r_i_glide_ligand_efficiency>  (360) 
-0.0915823

>  <r_i_glide_ligand_efficiency_sa>  (360) 
-0.274747

>  <r_i_glide_ligand_efficiency_ln>  (360) 
-0.575609

>  <r_i_glide_gscore>  (360) 
-2.47272

>  <r_i_glide_lipo>  (360) 
-0.0926742

>  <r_i_glide_hbond>  (360) 
-0.187877

>  <r_i_glide_metal>  (360) 
-0

>  <r_i_glide_rewards>  (360) 
-0.889905

>  <r_i_glide_evdw>  (360) 
-20.7428

>  <r_i_glide_ecoul>  (360) 
-5.03557

>  <r_i_glide_erotb>  (360) 
0.564959

>  <r_i_glide_esite>  (360) 
-0.0747513

>  <r_i_glide_emodel>  (360) 
-29.2046

>  <r_i_glide_energy>  (360) 
-25.7783

>  <r_i_glide_einternal>  (360) 
3.61217

>  <r_i_glide_intrahb_reward>  (360) 
-0

>  <i_i_glide_confnum>  (360) 
1

>  <i_i_glide_posenum>  (360) 
33

>  <r_i_glide_eff_state_penalty>  (360) 
0

>  <ligand_id>  (360) 
105

>  <original_smiles>  (360) 
O=C(N1CCN2CCCC2C1)N1C2C=C(c3cccnc3)CC(C2)C1CO

>  <smiles>  (360) 
[H]OC([H])([H])C1([H])N(C(=O)N2C([H])([H])C([H])([H])[N+]3([H])C([H])([H])C([H])([H])C([H])([H])C3([H])C2([H])[H])C2([H])C([H])=C(c3c([H])nc([H])c([H])c3[H])C([H])([H])C1([H])C2([H])[H]

$$$$
105:1:0
     RDKit          3D

 57 61  0  0  1  0  0  0  0  0999 V2000
    4.6473   -6.3824    5.7766 O   0  0  0  0  0  0  0  0  0  0  0  0
    3.5537   -6.8234    5.4066 C   0  0  0  0  0  0  0  0  0  0  0  0
    3.3726   -8.1214    5.0368 N   0  0  0  0  0  0  0  0  0  0  0  0
    4.4347   -9.1267    5.0385 C   0  0  0  0  0  0  0  0  0  0  0  0
    4.0395  -10.3093    5.9632 C   0  0  0  0  0  0  0  0  0  0  0  0
    2.6737  -10.8521    5.6848 N   0  0  2  0  0  0  0  0  0  0  0  0
    2.5310  -11.6997    4.4846 C   0  0  0  0  0  0  0  0  0  0  0  0
    1.0383  -11.6660    4.1088 C   0  0  0  0  0  0  0  0  0  0  0  0
    0.4376  -10.5426    4.9427 C   0  0  0  0  0  0  0  0  0  0  0  0
    1.6476   -9.8135    5.5220 C   0  0  2  0  0  0  0  0  0  0  0  0
    2.1173   -8.7373    4.5601 C   0  0  0  0  0  0  0  0  0  0  0  0
    2.4093   -6.1124    5.5760 N   0  0  0  0  0  0  0  0  0  0  0  0
    1.5126   -5.7049    4.4711 C   0  0  2  0  0  0  0  0  0  0  0  0
    2.1186   -4.5662    3.6938 C   0  0  0  0  0  0  0  0  0  0  0  0
    2.0909   -3.3093    4.1515 C   0  0  0  0  0  0  0  0  0  0  0  0
    2.6484   -2.2225    3.3278 C   0  0  0  0  0  0  0  0  0  0  0  0
    3.8246   -1.5723    3.7570 C   0  0  0  0  0  0  0  0  0  0  0  0
    4.3506   -0.5347    2.9579 C   0  0  0  0  0  0  0  0  0  0  0  0
    3.6946   -0.1783    1.7613 C   0  0  0  0  0  0  0  0  0  0  0  0
    2.5711   -0.8304    1.3771 N   0  0  0  0  0  0  0  0  0  0  0  0
    2.0366   -1.8302    2.1162 C   0  0  0  0  0  0  0  0  0  0  0  0
    1.4202   -3.0424    5.5016 C   0  0  0  0  0  0  0  0  0  0  0  0
    0.9550   -4.3343    6.2452 C   0  0  1  0  0  0  0  0  0  0  0  0
    0.2762   -5.2577    5.2408 C   0  0  0  0  0  0  0  0  0  0  0  0
    2.1525   -5.2088    6.7206 C   0  0  1  0  0  0  0  0  0  0  0  0
    1.8316   -5.9704    8.0401 C   0  0  0  0  0  0  0  0  0  0  0  0
    1.6114   -5.0772    9.1178 O   0  0  0  0  0  0  0  0  0  0  0  0
    4.5734   -9.5059    4.0253 H   0  0  0  0  0  0  0  0  0  0  0  0
    5.4168   -8.7327    5.3223 H   0  0  0  0  0  0  0  0  0  0  0  0
    4.7666  -11.1199    5.9255 H   0  0  0  0  0  0  0  0  0  0  0  0
    4.0408   -9.9443    6.9900 H   0  0  0  0  0  0  0  0  0  0  0  0
    3.1125  -11.2952    3.6553 H   0  0  0  0  0  0  0  0  0  0  0  0
    2.8992  -12.7010    4.6789 H   0  0  0  0  0  0  0  0  0  0  0  0
    0.9016  -11.4878    3.0435 H   0  0  0  0  0  0  0  0  0  0  0  0
    0.5471  -12.6054    4.3427 H   0  0  0  0  0  0  0  0  0  0  0  0
   -0.2252   -9.8908    4.3699 H   0  0  0  0  0  0  0  0  0  0  0  0
   -0.1489  -10.9538    5.7669 H   0  0  0  0  0  0  0  0  0  0  0  0
    1.3891   -9.3552    6.4800 H   0  0  0  0  0  0  0  0  0  0  0  0
    1.2243   -8.1561    4.5838 H   0  0  0  0  0  0  0  0  0  0  0  0
    2.2713   -9.0799    3.5366 H   0  0  0  0  0  0  0  0  0  0  0  0
    1.2633   -6.3829    3.6708 H   0  0  0  0  0  0  0  0  0  0  0  0
    2.5317   -4.8311    2.7339 H   0  0  0  0  0  0  0  0  0  0  0  0
    4.3107   -1.8749    4.6794 H   0  0  0  0  0  0  0  0  0  0  0  0
    5.2494   -0.0267    3.2720 H   0  0  0  0  0  0  0  0  0  0  0  0
    4.0305    0.6130    1.1031 H   0  0  0  0  0  0  0  0  0  0  0  0
    1.1237   -2.2564    1.7192 H   0  0  0  0  0  0  0  0  0  0  0  0
    2.1190   -2.4929    6.1289 H   0  0  0  0  0  0  0  0  0  0  0  0
    0.5474   -2.4116    5.3209 H   0  0  0  0  0  0  0  0  0  0  0  0
    0.2760   -4.0774    7.0651 H   0  0  0  0  0  0  0  0  0  0  0  0
   -0.4638   -4.7836    4.6010 H   0  0  0  0  0  0  0  0  0  0  0  0
   -0.1968   -6.1150    5.7353 H   0  0  0  0  0  0  0  0  0  0  0  0
    3.0216   -4.5755    6.9127 H   0  0  0  0  0  0  0  0  0  0  0  0
    0.9348   -6.5853    7.9377 H   0  0  0  0  0  0  0  0  0  0  0  0
    2.6436   -6.6411    8.3278 H   0  0  0  0  0  0  0  0  0  0  0  0
    2.4201   -4.6277    9.3343 H   0  0  0  0  0  0  0  0  0  0  0  0
    2.3608  -11.4208    6.4726 H   0  0  0  0  0  0  0  0  0  0  0  0
    2.0767   -0.5721    0.5140 H   0  0  0  0  0  0  0  0  0  0  0  0
  1  2  2  0
  2  3  1  0
  2 12  1  0
  3 11  1  0
  3  4  1  0
  4  5  1  0
  4 28  1  0
  4 29  1  0
  5  6  1  0
  5 30  1  0
  5 31  1  0
  6 10  1  0
  6  7  1  0
  6 56  1  1
  7  8  1  0
  7 32  1  0
  7 33  1  0
  8  9  1  0
  8 34  1  0
  8 35  1  0
  9 10  1  0
  9 36  1  0
  9 37  1  0
 10 11  1  0
 10 38  1  1
 11 39  1  0
 11 40  1  0
 12 25  1  0
 12 13  1  0
 13 24  1  0
 13 14  1  0
 13 41  1  6
 14 15  2  0
 14 42  1  0
 15 16  1  0
 15 22  1  0
 16 21  1  0
 16 17  2  0
 17 18  1  0
 17 43  1  0
 18 19  2  0
 18 44  1  0
 19 20  1  0
 19 45  1  0
 20 21  2  0
 20 57  1  0
 21 46  1  0
 22 23  1  0
 22 47  1  0
 22 48  1  0
 23 24  1  0
 23 25  1  0
 23 49  1  1
 24 50  1  0
 24 51  1  0
 25 26  1  0
 25 52  1  1
 26 27  1  0
 26 53  1  0
 26 54  1  0
 27 55  1  0
M  CHG  2   6   1  20   1
M  END
>  <i_m_ct_stereo_status>  (361) 
1

>  <s_m_source_file>  (361) 
/var/tmp/pbs.5076255.sched01/tmpay8aiv4m/132fzfu5vr2.sdf

>  <i_m_source_file_index>  (361) 
36

>  <i_lp_mmshare_version>  (361) 
48012

>  <i_f3d_flags>  (361) 
0

>  <s_epik_input>  (361) 
W0NIMl0xW0NIMl1bQ0gyXVtDQEBIXShOMTIpW0NIMl1OKFtDSDJdW0NIMl0yKUMoPU8pTihbQ0BIXTM0KVtDQEhdKFtDSDJdW09IXSlbQ0BIXShbQ0gyXTQpW0NIMl1DKD1bQ0hdMyljNVtjSF1bY0hdW2NIXW5bY0hdNQ==

>  <s_epik_cmdline>  (361) 
J2VwaWtfcHl0aG9uJywgJy1waHQnLCAnMi4wJywgJy1waCcsICc3LjAnLCAnLXRuJywgJzgnLCAnLW1hJywgJzIwMCcsICctaW1hZScsICc8aW5maWxlLm1hZT4nLCAnLW9tYWUnLCAnPG91dGZpbGUubWFlPic=

>  <r_epik_Ionization_Penalty>  (361) 
2.01724

>  <r_epik_Ionization_Penalty_Charging>  (361) 
2.01722

>  <r_epik_Ionization_Penalty_Neutral>  (361) 
2.13802e-05

>  <r_epik_State_Penalty>  (361) 
2.13919

>  <r_epik_Charging_Adjusted_Penalty>  (361) 
4.15641

>  <i_epik_Tot_Q>  (361) 
2

>  <i_epik_Tot_abs_Q>  (361) 
2

>  <s_lp_Force_Field>  (361) 
OPLS3e

>  <r_lp_Energy>  (361) 
77.2802

>  <b_lp_Chiralities_Consistent>  (361) 
1

>  <s_lp_Variant>  (361) 
105:0-2

>  <s_i_glide_gridfile>  (361) 
pfpi4k_grid

>  <i_i_glide_lignum>  (361) 
36

>  <i_i_glide_rotatable_bonds>  (361) 
5

>  <r_i_docking_score>  (361) 
-3.39006

>  <r_i_glide_ligand_efficiency>  (361) 
-0.125558

>  <r_i_glide_ligand_efficiency_sa>  (361) 
-0.376673

>  <r_i_glide_ligand_efficiency_ln>  (361) 
-0.78915

>  <r_i_glide_gscore>  (361) 
-3.39006

>  <r_i_glide_lipo>  (361) 
-0.150462

>  <r_i_glide_hbond>  (361) 
-0.395422

>  <r_i_glide_metal>  (361) 
-0

>  <r_i_glide_rewards>  (361) 
-0.883033

>  <r_i_glide_evdw>  (361) 
-15.317

>  <r_i_glide_ecoul>  (361) 
-10.7329

>  <r_i_glide_erotb>  (361) 
0.562215

>  <r_i_glide_esite>  (361) 
-0.147573

>  <r_i_glide_emodel>  (361) 
-30.9429

>  <r_i_glide_energy>  (361) 
-26.0499

>  <r_i_glide_einternal>  (361) 
4.70485

>  <r_i_glide_intrahb_reward>  (361) 
-0

>  <i_i_glide_confnum>  (361) 
1

>  <i_i_glide_posenum>  (361) 
2

>  <r_i_glide_eff_state_penalty>  (361) 
0

>  <ligand_id>  (361) 
105

>  <original_smiles>  (361) 
O=C(N1CCN2CCCC2C1)N1C2C=C(c3cccnc3)CC(C2)C1CO

>  <smiles>  (361) 
[H]OC([H])([H])C1([H])N(C(=O)N2C([H])([H])C([H])([H])[N+]3([H])C([H])([H])C([H])([H])C([H])([H])C3([H])C2([H])[H])C2([H])C([H])=C(c3c([H])c([H])c([H])[n+]([H])c3[H])C([H])([H])C1([H])C2([H])[H]

$$$$
105:1:1
     RDKit          3D

 57 61  0  0  1  0  0  0  0  0999 V2000
    3.1915   -4.3785    3.1464 O   0  0  0  0  0  0  0  0  0  0  0  0
    3.5290   -4.7100    2.0141 C   0  0  0  0  0  0  0  0  0  0  0  0
    3.2998   -3.9358    0.9184 N   0  0  0  0  0  0  0  0  0  0  0  0
    2.6181   -2.6364    0.9876 C   0  0  0  0  0  0  0  0  0  0  0  0
    3.5424   -1.5187    0.4517 C   0  0  0  0  0  0  0  0  0  0  0  0
    4.1440   -1.8440   -0.8743 N   0  0  2  0  0  0  0  0  0  0  0  0
    3.2718   -1.7032   -2.0655 C   0  0  0  0  0  0  0  0  0  0  0  0
    3.9142   -2.5668   -3.1653 C   0  0  0  0  0  0  0  0  0  0  0  0
    4.9817   -3.4071   -2.4639 C   0  0  0  0  0  0  0  0  0  0  0  0
    4.7004   -3.2045   -0.9747 C   0  0  2  0  0  0  0  0  0  0  0  0
    3.6959   -4.2434   -0.4668 C   0  0  0  0  0  0  0  0  0  0  0  0
    4.3174   -5.7858    1.7976 N   0  0  0  0  0  0  0  0  0  0  0  0
    3.9040   -6.9413    0.9917 C   0  0  2  0  0  0  0  0  0  0  0  0
    2.9521   -7.8086    1.7534 C   0  0  0  0  0  0  0  0  0  0  0  0
    3.3724   -8.6567    2.7098 C   0  0  0  0  0  0  0  0  0  0  0  0
    2.4249   -9.5448    3.4069 C   0  0  0  0  0  0  0  0  0  0  0  0
    1.0858   -9.6872    2.9636 C   0  0  0  0  0  0  0  0  0  0  0  0
    0.2370  -10.5296    3.6884 C   0  0  0  0  0  0  0  0  0  0  0  0
    0.7074  -11.2052    4.8232 C   0  0  0  0  0  0  0  0  0  0  0  0
    1.9860  -11.0464    5.2184 N   0  0  0  0  0  0  0  0  0  0  0  0
    2.8485  -10.2551    4.5548 C   0  0  0  0  0  0  0  0  0  0  0  0
    4.8745   -8.7082    3.0210 C   0  0  0  0  0  0  0  0  0  0  0  0
    5.7109   -7.6782    2.2264 C   0  0  1  0  0  0  0  0  0  0  0  0
    5.2142   -7.6613    0.7977 C   0  0  0  0  0  0  0  0  0  0  0  0
    5.4276   -6.2196    2.6695 C   0  0  1  0  0  0  0  0  0  0  0  0
    6.6750   -5.3169    2.5162 C   0  0  0  0  0  0  0  0  0  0  0  0
    7.7904   -5.8745    3.1973 O   0  0  0  0  0  0  0  0  0  0  0  0
    1.7508   -2.6566    0.3440 H   0  0  0  0  0  0  0  0  0  0  0  0
    2.2380   -2.3840    1.9791 H   0  0  0  0  0  0  0  0  0  0  0  0
    3.0214   -0.5582    0.4005 H   0  0  0  0  0  0  0  0  0  0  0  0
    4.3558   -1.3921    1.1667 H   0  0  0  0  0  0  0  0  0  0  0  0
    2.2797   -2.1127   -1.8617 H   0  0  0  0  0  0  0  0  0  0  0  0
    3.1555   -0.6559   -2.3426 H   0  0  0  0  0  0  0  0  0  0  0  0
    3.1629   -3.1974   -3.6413 H   0  0  0  0  0  0  0  0  0  0  0  0
    4.3641   -1.9500   -3.9375 H   0  0  0  0  0  0  0  0  0  0  0  0
    4.9602   -4.4558   -2.7659 H   0  0  0  0  0  0  0  0  0  0  0  0
    5.9763   -3.0272   -2.7070 H   0  0  0  0  0  0  0  0  0  0  0  0
    5.6211   -3.2936   -0.3963 H   0  0  0  0  0  0  0  0  0  0  0  0
    4.2457   -5.1492   -0.6374 H   0  0  0  0  0  0  0  0  0  0  0  0
    2.7873   -4.2762   -1.0780 H   0  0  0  0  0  0  0  0  0  0  0  0
    3.4341   -6.7296    0.0476 H   0  0  0  0  0  0  0  0  0  0  0  0
    1.9344   -7.7163    1.4234 H   0  0  0  0  0  0  0  0  0  0  0  0
    0.6685   -9.1822    2.1029 H   0  0  0  0  0  0  0  0  0  0  0  0
   -0.7923  -10.6387    3.3800 H   0  0  0  0  0  0  0  0  0  0  0  0
    0.1084  -11.8542    5.4389 H   0  0  0  0  0  0  0  0  0  0  0  0
    3.8465  -10.2032    4.9706 H   0  0  0  0  0  0  0  0  0  0  0  0
    5.0300   -8.5326    4.0849 H   0  0  0  0  0  0  0  0  0  0  0  0
    5.2302   -9.7112    2.7749 H   0  0  0  0  0  0  0  0  0  0  0  0
    6.7674   -7.9491    2.2788 H   0  0  0  0  0  0  0  0  0  0  0  0
    5.1337   -8.6447    0.3248 H   0  0  0  0  0  0  0  0  0  0  0  0
    5.8031   -6.9874    0.1877 H   0  0  0  0  0  0  0  0  0  0  0  0
    5.1191   -6.1952    3.7152 H   0  0  0  0  0  0  0  0  0  0  0  0
    6.9530   -5.1510    1.4750 H   0  0  0  0  0  0  0  0  0  0  0  0
    6.4635   -4.3330    2.9264 H   0  0  0  0  0  0  0  0  0  0  0  0
    8.0791   -6.6538    2.7494 H   0  0  0  0  0  0  0  0  0  0  0  0
    4.9172   -1.2044   -1.0157 H   0  0  0  0  0  0  0  0  0  0  0  0
    2.2820  -11.5541    6.0623 H   0  0  0  0  0  0  0  0  0  0  0  0
  1  2  2  0
  2  3  1  0
  2 12  1  0
  3 11  1  0
  3  4  1  0
  4  5  1  0
  4 28  1  0
  4 29  1  0
  5  6  1  0
  5 30  1  0
  5 31  1  0
  6 10  1  0
  6  7  1  0
  6 56  1  6
  7  8  1  0
  7 32  1  0
  7 33  1  0
  8  9  1  0
  8 34  1  0
  8 35  1  0
  9 10  1  0
  9 36  1  0
  9 37  1  0
 10 11  1  0
 10 38  1  1
 11 39  1  0
 11 40  1  0
 12 25  1  0
 12 13  1  0
 13 24  1  0
 13 14  1  0
 13 41  1  6
 14 15  2  0
 14 42  1  0
 15 16  1  0
 15 22  1  0
 16 21  1  0
 16 17  2  0
 17 18  1  0
 17 43  1  0
 18 19  2  0
 18 44  1  0
 19 20  1  0
 19 45  1  0
 20 21  2  0
 20 57  1  0
 21 46  1  0
 22 23  1  0
 22 47  1  0
 22 48  1  0
 23 24  1  0
 23 25  1  0
 23 49  1  6
 24 50  1  0
 24 51  1  0
 25 26  1  0
 25 52  1  1
 26 27  1  0
 26 53  1  0
 26 54  1  0
 27 55  1  0
M  CHG  2   6   1  20   1
M  END
>  <i_m_ct_stereo_status>  (362) 
1

>  <s_m_source_file>  (362) 
/var/tmp/pbs.5076255.sched01/tmpay8aiv4m/132fzfu5vr2.sdf

>  <i_m_source_file_index>  (362) 
36

>  <i_lp_mmshare_version>  (362) 
48012

>  <i_f3d_flags>  (362) 
0

>  <s_epik_input>  (362) 
W0NIMl0xW0NIMl1bQ0gyXVtDQEBIXShOMTIpW0NIMl1OKFtDSDJdW0NIMl0yKUMoPU8pTihbQ0BIXTM0KVtDQEhdKFtDSDJdW09IXSlbQ0BIXShbQ0gyXTQpW0NIMl1DKD1bQ0hdMyljNVtjSF1bY0hdW2NIXW5bY0hdNQ==

>  <s_epik_cmdline>  (362) 
J2VwaWtfcHl0aG9uJywgJy1waHQnLCAnMi4wJywgJy1waCcsICc3LjAnLCAnLXRuJywgJzgnLCAnLW1hJywgJzIwMCcsICctaW1hZScsICc8aW5maWxlLm1hZT4nLCAnLW9tYWUnLCAnPG91dGZpbGUubWFlPic=

>  <r_epik_Ionization_Penalty>  (362) 
2.01724

>  <r_epik_Ionization_Penalty_Charging>  (362) 
2.01722

>  <r_epik_Ionization_Penalty_Neutral>  (362) 
2.13802e-05

>  <r_epik_State_Penalty>  (362) 
2.13919

>  <r_epik_Charging_Adjusted_Penalty>  (362) 
4.15641

>  <i_epik_Tot_Q>  (362) 
2

>  <i_epik_Tot_abs_Q>  (362) 
2

>  <s_lp_Force_Field>  (362) 
OPLS3e

>  <r_lp_Energy>  (362) 
77.2802

>  <b_lp_Chiralities_Consistent>  (362) 
1

>  <s_lp_Variant>  (362) 
105:0-2

>  <s_i_glide_gridfile>  (362) 
pfpi4k_grid

>  <i_i_glide_lignum>  (362) 
36

>  <i_i_glide_rotatable_bonds>  (362) 
5

>  <r_i_docking_score>  (362) 
-3.31125

>  <r_i_glide_ligand_efficiency>  (362) 
-0.122639

>  <r_i_glide_ligand_efficiency_sa>  (362) 
-0.367916

>  <r_i_glide_ligand_efficiency_ln>  (362) 
-0.770804

>  <r_i_glide_gscore>  (362) 
-3.31125

>  <r_i_glide_lipo>  (362) 
-0.545038

>  <r_i_glide_hbond>  (362) 
-0.137861

>  <r_i_glide_metal>  (362) 
-0

>  <r_i_glide_rewards>  (362) 
-0.924713

>  <r_i_glide_evdw>  (362) 
-19.3013

>  <r_i_glide_ecoul>  (362) 
-7.84012

>  <r_i_glide_erotb>  (362) 
0.562215

>  <r_i_glide_esite>  (362) 
-0.124766

>  <r_i_glide_emodel>  (362) 
-33.0391

>  <r_i_glide_energy>  (362) 
-27.1414

>  <r_i_glide_einternal>  (362) 
2.35309

>  <r_i_glide_intrahb_reward>  (362) 
-0

>  <i_i_glide_confnum>  (362) 
2

>  <i_i_glide_posenum>  (362) 
9

>  <r_i_glide_eff_state_penalty>  (362) 
0

>  <ligand_id>  (362) 
105

>  <original_smiles>  (362) 
O=C(N1CCN2CCCC2C1)N1C2C=C(c3cccnc3)CC(C2)C1CO

>  <smiles>  (362) 
[H]OC([H])([H])C1([H])N(C(=O)N2C([H])([H])C([H])([H])[N+]3([H])C([H])([H])C([H])([H])C([H])([H])C3([H])C2([H])[H])C2([H])C([H])=C(c3c([H])c([H])c([H])[n+]([H])c3[H])C([H])([H])C1([H])C2([H])[H]

$$$$
105:1:2
     RDKit          3D

 57 61  0  0  1  0  0  0  0  0999 V2000
    4.9323   -6.5775    4.4053 O   0  0  0  0  0  0  0  0  0  0  0  0
    3.7641   -6.9481    4.3175 C   0  0  0  0  0  0  0  0  0  0  0  0
    3.4048   -8.1481    3.7798 N   0  0  0  0  0  0  0  0  0  0  0  0
    4.3792   -9.0805    3.1817 C   0  0  0  0  0  0  0  0  0  0  0  0
    4.3922  -10.4183    3.9628 C   0  0  0  0  0  0  0  0  0  0  0  0
    3.0223  -10.9873    4.1639 N   0  0  2  0  0  0  0  0  0  0  0  0
    2.4037  -11.6488    2.9829 C   0  0  0  0  0  0  0  0  0  0  0  0
    0.8947  -11.6480    3.2675 C   0  0  0  0  0  0  0  0  0  0  0  0
    0.6848  -10.7270    4.4712 C   0  0  0  0  0  0  0  0  0  0  0  0
    2.0128  -10.0033    4.6343 C   0  0  2  0  0  0  0  0  0  0  0  0
    2.0487   -8.7142    3.7818 C   0  0  0  0  0  0  0  0  0  0  0  0
    2.7526   -6.2482    4.8808 N   0  0  0  0  0  0  0  0  0  0  0  0
    1.6146   -5.7112    4.1296 C   0  0  2  0  0  0  0  0  0  0  0  0
    2.0396   -4.4495    3.4024 C   0  0  0  0  0  0  0  0  0  0  0  0
    2.2116   -3.2684    4.0459 C   0  0  0  0  0  0  0  0  0  0  0  0
    2.5856   -2.0497    3.2991 C   0  0  0  0  0  0  0  0  0  0  0  0
    3.3594   -1.0463    3.9251 C   0  0  0  0  0  0  0  0  0  0  0  0
    3.7518    0.0891    3.1893 C   0  0  0  0  0  0  0  0  0  0  0  0
    3.3599    0.2034    1.8408 C   0  0  0  0  0  0  0  0  0  0  0  0
    2.6115   -0.7665    1.2822 N   0  0  0  0  0  0  0  0  0  0  0  0
    2.2278   -1.8764    1.9444 C   0  0  0  0  0  0  0  0  0  0  0  0
    1.9252   -3.2194    5.5530 C   0  0  0  0  0  0  0  0  0  0  0  0
    1.6014   -4.6070    6.1738 C   0  0  1  0  0  0  0  0  0  0  0  0
    0.6421   -5.3455    5.2499 C   0  0  0  0  0  0  0  0  0  0  0  0
    2.8403   -5.5415    6.1746 C   0  0  1  0  0  0  0  0  0  0  0  0
    2.8379   -6.5176    7.3801 C   0  0  0  0  0  0  0  0  0  0  0  0
    3.0067   -5.8115    8.5962 O   0  0  0  0  0  0  0  0  0  0  0  0
    4.0863   -9.2619    2.1508 H   0  0  0  0  0  0  0  0  0  0  0  0
    5.3902   -8.6709    3.1355 H   0  0  0  0  0  0  0  0  0  0  0  0
    5.0292  -11.1581    3.4707 H   0  0  0  0  0  0  0  0  0  0  0  0
    4.8127  -10.2370    4.9426 H   0  0  0  0  0  0  0  0  0  0  0  0
    2.6187  -11.0568    2.0903 H   0  0  0  0  0  0  0  0  0  0  0  0
    2.8233  -12.6393    2.8299 H   0  0  0  0  0  0  0  0  0  0  0  0
    0.3350  -11.2944    2.3995 H   0  0  0  0  0  0  0  0  0  0  0  0
    0.5368  -12.6489    3.5034 H   0  0  0  0  0  0  0  0  0  0  0  0
   -0.1545  -10.0426    4.3318 H   0  0  0  0  0  0  0  0  0  0  0  0
    0.4697  -11.3255    5.3592 H   0  0  0  0  0  0  0  0  0  0  0  0
    2.1992   -9.7603    5.6729 H   0  0  0  0  0  0  0  0  0  0  0  0
    1.2770   -8.0946    4.1895 H   0  0  0  0  0  0  0  0  0  0  0  0
    1.7724   -8.9238    2.7409 H   0  0  0  0  0  0  0  0  0  0  0  0
    1.1674   -6.4016    3.4285 H   0  0  0  0  0  0  0  0  0  0  0  0
    2.1946   -4.5501    2.3454 H   0  0  0  0  0  0  0  0  0  0  0  0
    3.6724   -1.1540    4.9530 H   0  0  0  0  0  0  0  0  0  0  0  0
    4.3450    0.8593    3.6564 H   0  0  0  0  0  0  0  0  0  0  0  0
    3.6073    1.0438    1.2134 H   0  0  0  0  0  0  0  0  0  0  0  0
    1.6393   -2.5656    1.3542 H   0  0  0  0  0  0  0  0  0  0  0  0
    2.7879   -2.8074    6.0767 H   0  0  0  0  0  0  0  0  0  0  0  0
    1.0750   -2.5502    5.7053 H   0  0  0  0  0  0  0  0  0  0  0  0
    1.1856   -4.4750    7.1760 H   0  0  0  0  0  0  0  0  0  0  0  0
   -0.2121   -4.7480    4.9194 H   0  0  0  0  0  0  0  0  0  0  0  0
    0.2639   -6.2524    5.7218 H   0  0  0  0  0  0  0  0  0  0  0  0
    3.7607   -4.9558    6.2116 H   0  0  0  0  0  0  0  0  0  0  0  0
    1.9003   -7.0719    7.4460 H   0  0  0  0  0  0  0  0  0  0  0  0
    3.6356   -7.2570    7.3077 H   0  0  0  0  0  0  0  0  0  0  0  0
    3.8724   -5.4320    8.6240 H   0  0  0  0  0  0  0  0  0  0  0  0
    3.0815  -11.7004    4.8897 H   0  0  0  0  0  0  0  0  0  0  0  0
    2.2879   -0.6606    0.3128 H   0  0  0  0  0  0  0  0  0  0  0  0
  1  2  2  0
  2  3  1  0
  2 12  1  0
  3 11  1  0
  3  4  1  0
  4  5  1  0
  4 28  1  0
  4 29  1  0
  5  6  1  0
  5 30  1  0
  5 31  1  0
  6 10  1  0
  6  7  1  0
  6 56  1  1
  7  8  1  0
  7 32  1  0
  7 33  1  0
  8  9  1  0
  8 34  1  0
  8 35  1  0
  9 10  1  0
  9 36  1  0
  9 37  1  0
 10 11  1  0
 10 38  1  1
 11 39  1  0
 11 40  1  0
 12 25  1  0
 12 13  1  0
 13 24  1  0
 13 14  1  0
 13 41  1  6
 14 15  2  0
 14 42  1  0
 15 16  1  0
 15 22  1  0
 16 21  1  0
 16 17  2  0
 17 18  1  0
 17 43  1  0
 18 19  2  0
 18 44  1  0
 19 20  1  0
 19 45  1  0
 20 21  2  0
 20 57  1  0
 21 46  1  0
 22 23  1  0
 22 47  1  0
 22 48  1  0
 23 24  1  0
 23 25  1  0
 23 49  1  1
 24 50  1  0
 24 51  1  0
 25 26  1  0
 25 52  1  6
 26 27  1  0
 26 53  1  0
 26 54  1  0
 27 55  1  0
M  CHG  2   6   1  20   1
M  END
>  <i_m_ct_stereo_status>  (363) 
1

>  <s_m_source_file>  (363) 
/var/tmp/pbs.5076255.sched01/tmpay8aiv4m/132fzfu5vr2.sdf

>  <i_m_source_file_index>  (363) 
36

>  <i_lp_mmshare_version>  (363) 
48012

>  <i_f3d_flags>  (363) 
0

>  <s_epik_input>  (363) 
W0NIMl0xW0NIMl1bQ0gyXVtDQEBIXShOMTIpW0NIMl1OKFtDSDJdW0NIMl0yKUMoPU8pTihbQ0BIXTM0KVtDQEhdKFtDSDJdW09IXSlbQ0BIXShbQ0gyXTQpW0NIMl1DKD1bQ0hdMyljNVtjSF1bY0hdW2NIXW5bY0hdNQ==

>  <s_epik_cmdline>  (363) 
J2VwaWtfcHl0aG9uJywgJy1waHQnLCAnMi4wJywgJy1waCcsICc3LjAnLCAnLXRuJywgJzgnLCAnLW1hJywgJzIwMCcsICctaW1hZScsICc8aW5maWxlLm1hZT4nLCAnLW9tYWUnLCAnPG91dGZpbGUubWFlPic=

>  <r_epik_Ionization_Penalty>  (363) 
2.01724

>  <r_epik_Ionization_Penalty_Charging>  (363) 
2.01722

>  <r_epik_Ionization_Penalty_Neutral>  (363) 
2.13802e-05

>  <r_epik_State_Penalty>  (363) 
2.13919

>  <r_epik_Charging_Adjusted_Penalty>  (363) 
4.15641

>  <i_epik_Tot_Q>  (363) 
2

>  <i_epik_Tot_abs_Q>  (363) 
2

>  <s_lp_Force_Field>  (363) 
OPLS3e

>  <r_lp_Energy>  (363) 
77.2802

>  <b_lp_Chiralities_Consistent>  (363) 
1

>  <s_lp_Variant>  (363) 
105:0-2

>  <s_i_glide_gridfile>  (363) 
pfpi4k_grid

>  <i_i_glide_lignum>  (363) 
36

>  <i_i_glide_rotatable_bonds>  (363) 
5

>  <r_i_docking_score>  (363) 
-2.85513

>  <r_i_glide_ligand_efficiency>  (363) 
-0.105746

>  <r_i_glide_ligand_efficiency_sa>  (363) 
-0.317237

>  <r_i_glide_ligand_efficiency_ln>  (363) 
-0.664627

>  <r_i_glide_gscore>  (363) 
-2.85513

>  <r_i_glide_lipo>  (363) 
-0.13614

>  <r_i_glide_hbond>  (363) 
-0.162356

>  <r_i_glide_metal>  (363) 
-0

>  <r_i_glide_rewards>  (363) 
-0.883033

>  <r_i_glide_evdw>  (363) 
-16.2306

>  <r_i_glide_ecoul>  (363) 
-8.9199

>  <r_i_glide_erotb>  (363) 
0.562215

>  <r_i_glide_esite>  (363) 
-0.0862991

>  <r_i_glide_emodel>  (363) 
-30.6968

>  <r_i_glide_energy>  (363) 
-25.1505

>  <r_i_glide_einternal>  (363) 
1.79109

>  <r_i_glide_intrahb_reward>  (363) 
-0

>  <i_i_glide_confnum>  (363) 
1

>  <i_i_glide_posenum>  (363) 
21

>  <r_i_glide_eff_state_penalty>  (363) 
0

>  <ligand_id>  (363) 
105

>  <original_smiles>  (363) 
O=C(N1CCN2CCCC2C1)N1C2C=C(c3cccnc3)CC(C2)C1CO

>  <smiles>  (363) 
[H]OC([H])([H])C1([H])N(C(=O)N2C([H])([H])C([H])([H])[N+]3([H])C([H])([H])C([H])([H])C([H])([H])C3([H])C2([H])[H])C2([H])C([H])=C(c3c([H])c([H])c([H])[n+]([H])c3[H])C([H])([H])C1([H])C2([H])[H]

$$$$
105:2:0
     RDKit          3D

 55 59  0  0  1  0  0  0  0  0999 V2000
    0.9338   -6.3211    0.5149 O   0  0  0  0  0  0  0  0  0  0  0  0
    1.5471   -6.4707    1.5798 C   0  0  0  0  0  0  0  0  0  0  0  0
    1.0029   -7.0546    2.6610 N   0  0  0  0  0  0  0  0  0  0  0  0
    0.2859   -8.3350    2.6042 C   0  0  0  0  0  0  0  0  0  0  0  0
    0.7177   -9.2170    3.8015 C   0  0  0  0  0  0  0  0  0  0  0  0
    0.4802   -8.4751    5.0394 N   0  0  0  0  0  0  0  0  0  0  0  0
    0.8991   -9.1761    6.2446 C   0  0  0  0  0  0  0  0  0  0  0  0
    0.9492   -8.0558    7.2905 C   0  0  0  0  0  0  0  0  0  0  0  0
    1.0689   -6.7595    6.4836 C   0  0  0  0  0  0  0  0  0  0  0  0
    1.2744   -7.2537    5.0559 C   0  0  2  0  0  0  0  0  0  0  0  0
    0.7940   -6.3368    3.9249 C   0  0  0  0  0  0  0  0  0  0  0  0
    2.8600   -6.2075    1.7479 N   0  0  0  0  0  0  0  0  0  0  0  0
    3.3719   -4.8545    1.9895 C   0  0  2  0  0  0  0  0  0  0  0  0
    3.2806   -3.9996    0.7291 C   0  0  0  0  0  0  0  0  0  0  0  0
    4.1456   -4.1352   -0.2996 C   0  0  0  0  0  0  0  0  0  0  0  0
    4.0917   -3.2527   -1.4980 C   0  0  0  0  0  0  0  0  0  0  0  0
    3.4672   -1.9819   -1.4781 C   0  0  0  0  0  0  0  0  0  0  0  0
    3.4157   -1.2242   -2.6637 C   0  0  0  0  0  0  0  0  0  0  0  0
    3.9730   -1.7661   -3.8334 C   0  0  0  0  0  0  0  0  0  0  0  0
    4.5710   -2.9720   -3.8732 N   0  0  0  0  0  0  0  0  0  0  0  0
    4.6225   -3.6881   -2.7308 C   0  0  0  0  0  0  0  0  0  0  0  0
    5.2578   -5.1841   -0.1566 C   0  0  0  0  0  0  0  0  0  0  0  0
    5.1724   -6.0357    1.1372 C   0  0  1  0  0  0  0  0  0  0  0  0
    4.8388   -5.1228    2.3066 C   0  0  0  0  0  0  0  0  0  0  0  0
    3.9522   -6.9819    1.1254 C   0  0  1  0  0  0  0  0  0  0  0  0
    4.2067   -8.3033    1.8918 C   0  0  0  0  0  0  0  0  0  0  0  0
    5.0213   -9.1598    1.1178 O   0  0  0  0  0  0  0  0  0  0  0  0
   -0.7927   -8.1733    2.6093 H   0  0  0  0  0  0  0  0  0  0  0  0
    0.5207   -8.8626    1.6790 H   0  0  0  0  0  0  0  0  0  0  0  0
    0.1596  -10.1545    3.8162 H   0  0  0  0  0  0  0  0  0  0  0  0
    1.7772   -9.4715    3.7182 H   0  0  0  0  0  0  0  0  0  0  0  0
    0.2131   -9.9808    6.5086 H   0  0  0  0  0  0  0  0  0  0  0  0
    1.8923   -9.6066    6.1075 H   0  0  0  0  0  0  0  0  0  0  0  0
    0.0413   -8.0441    7.8915 H   0  0  0  0  0  0  0  0  0  0  0  0
    1.7926   -8.1913    7.9650 H   0  0  0  0  0  0  0  0  0  0  0  0
    0.1477   -6.1798    6.5660 H   0  0  0  0  0  0  0  0  0  0  0  0
    1.8953   -6.1302    6.8163 H   0  0  0  0  0  0  0  0  0  0  0  0
    2.3305   -7.4985    4.9052 H   0  0  0  0  0  0  0  0  0  0  0  0
    1.3368   -5.3949    3.9594 H   0  0  0  0  0  0  0  0  0  0  0  0
   -0.2632   -6.0952    4.0345 H   0  0  0  0  0  0  0  0  0  0  0  0
    2.8883   -4.3480    2.8193 H   0  0  0  0  0  0  0  0  0  0  0  0
    2.4748   -3.2774    0.7133 H   0  0  0  0  0  0  0  0  0  0  0  0
    3.0197   -1.5773   -0.5796 H   0  0  0  0  0  0  0  0  0  0  0  0
    2.9318   -0.2572   -2.6962 H   0  0  0  0  0  0  0  0  0  0  0  0
    3.9586   -1.2127   -4.7627 H   0  0  0  0  0  0  0  0  0  0  0  0
    5.0929   -4.6509   -2.8366 H   0  0  0  0  0  0  0  0  0  0  0  0
    5.2239   -5.8597   -1.0071 H   0  0  0  0  0  0  0  0  0  0  0  0
    6.2084   -4.6524   -0.1737 H   0  0  0  0  0  0  0  0  0  0  0  0
    6.1037   -6.5849    1.2816 H   0  0  0  0  0  0  0  0  0  0  0  0
    5.4519   -4.2197    2.3476 H   0  0  0  0  0  0  0  0  0  0  0  0
    4.9388   -5.6546    3.2547 H   0  0  0  0  0  0  0  0  0  0  0  0
    3.7112   -7.2123    0.0884 H   0  0  0  0  0  0  0  0  0  0  0  0
    4.6774   -8.1099    2.8583 H   0  0  0  0  0  0  0  0  0  0  0  0
    3.2777   -8.8342    2.0979 H   0  0  0  0  0  0  0  0  0  0  0  0
    4.6166  -10.0240    1.0686 H   0  0  0  0  0  0  0  0  0  0  0  0
  1  2  2  0
  2  3  1  0
  2 12  1  0
  3 11  1  0
  3  4  1  0
  4  5  1  0
  4 28  1  0
  4 29  1  0
  5  6  1  0
  5 30  1  0
  5 31  1  0
  6 10  1  0
  6  7  1  0
  7  8  1  0
  7 32  1  0
  7 33  1  0
  8  9  1  0
  8 34  1  0
  8 35  1  0
  9 10  1  0
  9 36  1  0
  9 37  1  0
 10 11  1  0
 10 38  1  6
 11 39  1  0
 11 40  1  0
 12 25  1  0
 12 13  1  0
 13 24  1  0
 13 14  1  0
 13 41  1  1
 14 15  2  0
 14 42  1  0
 15 16  1  0
 15 22  1  0
 16 21  1  0
 16 17  2  0
 17 18  1  0
 17 43  1  0
 18 19  2  0
 18 44  1  0
 19 20  1  0
 19 45  1  0
 20 21  2  0
 21 46  1  0
 22 23  1  0
 22 47  1  0
 22 48  1  0
 23 24  1  0
 23 25  1  0
 23 49  1  1
 24 50  1  0
 24 51  1  0
 25 26  1  0
 25 52  1  6
 26 27  1  0
 26 53  1  0
 26 54  1  0
 27 55  1  0
M  END
>  <i_m_ct_stereo_status>  (364) 
1

>  <s_m_source_file>  (364) 
/var/tmp/pbs.5076255.sched01/tmpay8aiv4m/132fzfu5vr2.sdf

>  <i_m_source_file_index>  (364) 
37

>  <i_lp_mmshare_version>  (364) 
48012

>  <i_f3d_flags>  (364) 
0

>  <s_epik_input>  (364) 
W0NIMl0xW0NIMl1bQ0gyXVtDQEBIXShOMTIpW0NIMl1OKFtDSDJdW0NIMl0yKUMoPU8pTihbQ0BIXTM0KVtDQEhdKFtDSDJdW09IXSlbQ0BIXShbQ0gyXTQpW0NIMl1DKD1bQ0hdMyljNVtjSF1bY0hdW2NIXW5bY0hdNQ==

>  <s_epik_cmdline>  (364) 
J2VwaWtfcHl0aG9uJywgJy1waHQnLCAnMi4wJywgJy1waCcsICc3LjAnLCAnLXRuJywgJzgnLCAnLW1hJywgJzIwMCcsICctaW1hZScsICc8aW5maWxlLm1hZT4nLCAnLW9tYWUnLCAnPG91dGZpbGUubWFlPic=

>  <r_epik_Ionization_Penalty>  (364) 
2.52524

>  <r_epik_Ionization_Penalty_Charging>  (364) 
0

>  <r_epik_Ionization_Penalty_Neutral>  (364) 
2.52524

>  <r_epik_State_Penalty>  (364) 
2.6882

>  <r_epik_Charging_Adjusted_Penalty>  (364) 
2.6882

>  <i_epik_Tot_Q>  (364) 
0

>  <i_epik_Tot_abs_Q>  (364) 
0

>  <s_lp_Force_Field>  (364) 
OPLS3e

>  <r_lp_Energy>  (364) 
58.6505

>  <b_lp_Chiralities_Consistent>  (364) 
1

>  <s_lp_Variant>  (364) 
105:0-3

>  <s_i_glide_gridfile>  (364) 
pfpi4k_grid

>  <i_i_glide_lignum>  (364) 
37

>  <i_i_glide_rotatable_bonds>  (364) 
5

>  <r_i_docking_score>  (364) 
-3.78302

>  <r_i_glide_ligand_efficiency>  (364) 
-0.140112

>  <r_i_glide_ligand_efficiency_sa>  (364) 
-0.420336

>  <r_i_glide_ligand_efficiency_ln>  (364) 
-0.880625

>  <r_i_glide_gscore>  (364) 
-3.78302

>  <r_i_glide_lipo>  (364) 
-0.319893

>  <r_i_glide_hbond>  (364) 
-0.309335

>  <r_i_glide_metal>  (364) 
-0

>  <r_i_glide_rewards>  (364) 
-0.90156

>  <r_i_glide_evdw>  (364) 
-29.571

>  <r_i_glide_ecoul>  (364) 
-8.37383

>  <r_i_glide_erotb>  (364) 
0.567723

>  <r_i_glide_esite>  (364) 
-0.0853323

>  <r_i_glide_emodel>  (364) 
-39.5458

>  <r_i_glide_energy>  (364) 
-37.9448

>  <r_i_glide_einternal>  (364) 
14.7021

>  <r_i_glide_intrahb_reward>  (364) 
-0

>  <i_i_glide_confnum>  (364) 
3

>  <i_i_glide_posenum>  (364) 
34

>  <r_i_glide_eff_state_penalty>  (364) 
0

>  <ligand_id>  (364) 
105

>  <original_smiles>  (364) 
O=C(N1CCN2CCCC2C1)N1C2C=C(c3cccnc3)CC(C2)C1CO

>  <smiles>  (364) 
[H]OC([H])([H])C1([H])N(C(=O)N2C([H])([H])C([H])([H])N3C([H])([H])C([H])([H])C([H])([H])C3([H])C2([H])[H])C2([H])C([H])=C(c3c([H])nc([H])c([H])c3[H])C([H])([H])C1([H])C2([H])[H]

$$$$
105:2:1
     RDKit          3D

 55 59  0  0  1  0  0  0  0  0999 V2000
    1.3085   -5.8555    0.5969 O   0  0  0  0  0  0  0  0  0  0  0  0
    2.1713   -6.0045    1.4831 C   0  0  0  0  0  0  0  0  0  0  0  0
    2.1774   -7.0775    2.3140 N   0  0  0  0  0  0  0  0  0  0  0  0
    0.9977   -7.9534    2.4729 C   0  0  0  0  0  0  0  0  0  0  0  0
    1.3563   -9.4492    2.3057 C   0  0  0  0  0  0  0  0  0  0  0  0
    2.4415   -9.7853    3.2192 N   0  0  0  0  0  0  0  0  0  0  0  0
    2.9018  -11.1625    3.1256 C   0  0  0  0  0  0  0  0  0  0  0  0
    4.2795  -11.1148    3.8004 C   0  0  0  0  0  0  0  0  0  0  0  0
    4.6985   -9.6473    3.7337 C   0  0  0  0  0  0  0  0  0  0  0  0
    3.6164   -9.0141    2.8621 C   0  0  2  0  0  0  0  0  0  0  0  0
    3.3371   -7.5324    3.1177 C   0  0  0  0  0  0  0  0  0  0  0  0
    3.1687   -5.1023    1.6478 N   0  0  0  0  0  0  0  0  0  0  0  0
    3.4625   -4.4300    2.9252 C   0  0  2  0  0  0  0  0  0  0  0  0
    2.3770   -3.4197    3.2409 C   0  0  0  0  0  0  0  0  0  0  0  0
    2.3196   -2.2074    2.6338 C   0  0  0  0  0  0  0  0  0  0  0  0
    1.2737   -1.2099    2.9856 C   0  0  0  0  0  0  0  0  0  0  0  0
    1.0547   -0.0840    2.1656 C   0  0  0  0  0  0  0  0  0  0  0  0
    0.0279    0.8235    2.4823 C   0  0  0  0  0  0  0  0  0  0  0  0
   -0.7507    0.5778    3.6267 C   0  0  0  0  0  0  0  0  0  0  0  0
   -0.5633   -0.4882    4.4350 N   0  0  0  0  0  0  0  0  0  0  0  0
    0.4322   -1.3497    4.1175 C   0  0  0  0  0  0  0  0  0  0  0  0
    3.4023   -1.8858    1.5913 C   0  0  0  0  0  0  0  0  0  0  0  0
    4.3805   -3.0580    1.3065 C   0  0  1  0  0  0  0  0  0  0  0  0
    4.7698   -3.7026    2.6249 C   0  0  0  0  0  0  0  0  0  0  0  0
    3.6798   -4.2348    0.5740 C   0  0  1  0  0  0  0  0  0  0  0  0
    4.6576   -5.0095   -0.3418 C   0  0  0  0  0  0  0  0  0  0  0  0
    4.9732   -4.2501   -1.4888 O   0  0  0  0  0  0  0  0  0  0  0  0
    0.5831   -7.7916    3.4684 H   0  0  0  0  0  0  0  0  0  0  0  0
    0.1926   -7.7188    1.7712 H   0  0  0  0  0  0  0  0  0  0  0  0
    0.4908  -10.0729    2.5315 H   0  0  0  0  0  0  0  0  0  0  0  0
    1.6553   -9.6638    1.2756 H   0  0  0  0  0  0  0  0  0  0  0  0
    2.2151  -11.8567    3.6091 H   0  0  0  0  0  0  0  0  0  0  0  0
    3.0151  -11.4499    2.0807 H   0  0  0  0  0  0  0  0  0  0  0  0
    4.2171  -11.4456    4.8376 H   0  0  0  0  0  0  0  0  0  0  0  0
    4.9875  -11.7638    3.2839 H   0  0  0  0  0  0  0  0  0  0  0  0
    4.6956   -9.2138    4.7342 H   0  0  0  0  0  0  0  0  0  0  0  0
    5.6949   -9.5106    3.3154 H   0  0  0  0  0  0  0  0  0  0  0  0
    3.8633   -9.1745    1.8108 H   0  0  0  0  0  0  0  0  0  0  0  0
    4.2624   -7.0179    2.8758 H   0  0  0  0  0  0  0  0  0  0  0  0
    3.1235   -7.3631    4.1728 H   0  0  0  0  0  0  0  0  0  0  0  0
    3.5884   -5.0660    3.7947 H   0  0  0  0  0  0  0  0  0  0  0  0
    1.6689   -3.7450    3.9847 H   0  0  0  0  0  0  0  0  0  0  0  0
    1.6417    0.0946    1.2747 H   0  0  0  0  0  0  0  0  0  0  0  0
   -0.1708    1.6830    1.8497 H   0  0  0  0  0  0  0  0  0  0  0  0
   -1.5601    1.2434    3.8992 H   0  0  0  0  0  0  0  0  0  0  0  0
    0.5185   -2.1709    4.8074 H   0  0  0  0  0  0  0  0  0  0  0  0
    2.9343   -1.6011    0.6499 H   0  0  0  0  0  0  0  0  0  0  0  0
    3.9667   -1.0327    1.9635 H   0  0  0  0  0  0  0  0  0  0  0  0
    5.2511   -2.6929    0.7561 H   0  0  0  0  0  0  0  0  0  0  0  0
    5.0607   -2.9941    3.4045 H   0  0  0  0  0  0  0  0  0  0  0  0
    5.5800   -4.4216    2.5000 H   0  0  0  0  0  0  0  0  0  0  0  0
    2.8508   -3.8547   -0.0331 H   0  0  0  0  0  0  0  0  0  0  0  0
    5.5845   -5.2507    0.1858 H   0  0  0  0  0  0  0  0  0  0  0  0
    4.2280   -5.9579   -0.6760 H   0  0  0  0  0  0  0  0  0  0  0  0
    4.2840   -4.4127   -2.1279 H   0  0  0  0  0  0  0  0  0  0  0  0
  1  2  2  0
  2  3  1  0
  2 12  1  0
  3 11  1  0
  3  4  1  0
  4  5  1  0
  4 28  1  0
  4 29  1  0
  5  6  1  0
  5 30  1  0
  5 31  1  0
  6 10  1  0
  6  7  1  0
  7  8  1  0
  7 32  1  0
  7 33  1  0
  8  9  1  0
  8 34  1  0
  8 35  1  0
  9 10  1  0
  9 36  1  0
  9 37  1  0
 10 11  1  0
 10 38  1  6
 11 39  1  0
 11 40  1  0
 12 25  1  0
 12 13  1  0
 13 24  1  0
 13 14  1  0
 13 41  1  1
 14 15  2  0
 14 42  1  0
 15 16  1  0
 15 22  1  0
 16 21  1  0
 16 17  2  0
 17 18  1  0
 17 43  1  0
 18 19  2  0
 18 44  1  0
 19 20  1  0
 19 45  1  0
 20 21  2  0
 21 46  1  0
 22 23  1  0
 22 47  1  0
 22 48  1  0
 23 24  1  0
 23 25  1  0
 23 49  1  6
 24 50  1  0
 24 51  1  0
 25 26  1  0
 25 52  1  6
 26 27  1  0
 26 53  1  0
 26 54  1  0
 27 55  1  0
M  END
>  <i_m_ct_stereo_status>  (365) 
1

>  <s_m_source_file>  (365) 
/var/tmp/pbs.5076255.sched01/tmpay8aiv4m/132fzfu5vr2.sdf

>  <i_m_source_file_index>  (365) 
37

>  <i_lp_mmshare_version>  (365) 
48012

>  <i_f3d_flags>  (365) 
0

>  <s_epik_input>  (365) 
W0NIMl0xW0NIMl1bQ0gyXVtDQEBIXShOMTIpW0NIMl1OKFtDSDJdW0NIMl0yKUMoPU8pTihbQ0BIXTM0KVtDQEhdKFtDSDJdW09IXSlbQ0BIXShbQ0gyXTQpW0NIMl1DKD1bQ0hdMyljNVtjSF1bY0hdW2NIXW5bY0hdNQ==

>  <s_epik_cmdline>  (365) 
J2VwaWtfcHl0aG9uJywgJy1waHQnLCAnMi4wJywgJy1waCcsICc3LjAnLCAnLXRuJywgJzgnLCAnLW1hJywgJzIwMCcsICctaW1hZScsICc8aW5maWxlLm1hZT4nLCAnLW9tYWUnLCAnPG91dGZpbGUubWFlPic=

>  <r_epik_Ionization_Penalty>  (365) 
2.52524

>  <r_epik_Ionization_Penalty_Charging>  (365) 
0

>  <r_epik_Ionization_Penalty_Neutral>  (365) 
2.52524

>  <r_epik_State_Penalty>  (365) 
2.6882

>  <r_epik_Charging_Adjusted_Penalty>  (365) 
2.6882

>  <i_epik_Tot_Q>  (365) 
0

>  <i_epik_Tot_abs_Q>  (365) 
0

>  <s_lp_Force_Field>  (365) 
OPLS3e

>  <r_lp_Energy>  (365) 
58.6505

>  <b_lp_Chiralities_Consistent>  (365) 
1

>  <s_lp_Variant>  (365) 
105:0-3

>  <s_i_glide_gridfile>  (365) 
pfpi4k_grid

>  <i_i_glide_lignum>  (365) 
37

>  <i_i_glide_rotatable_bonds>  (365) 
5

>  <r_i_docking_score>  (365) 
-3.16261

>  <r_i_glide_ligand_efficiency>  (365) 
-0.117134

>  <r_i_glide_ligand_efficiency_sa>  (365) 
-0.351401

>  <r_i_glide_ligand_efficiency_ln>  (365) 
-0.736203

>  <r_i_glide_gscore>  (365) 
-3.16261

>  <r_i_glide_lipo>  (365) 
-0.129105

>  <r_i_glide_hbond>  (365) 
-0.292921

>  <r_i_glide_metal>  (365) 
-0

>  <r_i_glide_rewards>  (365) 
-0.900198

>  <r_i_glide_evdw>  (365) 
-23.9501

>  <r_i_glide_ecoul>  (365) 
-7.82064

>  <r_i_glide_erotb>  (365) 
0.567723

>  <r_i_glide_esite>  (365) 
-0.0375075

>  <r_i_glide_emodel>  (365) 
-39.1337

>  <r_i_glide_energy>  (365) 
-31.7708

>  <r_i_glide_einternal>  (365) 
0.690717

>  <r_i_glide_intrahb_reward>  (365) 
-0

>  <i_i_glide_confnum>  (365) 
5

>  <i_i_glide_posenum>  (365) 
1

>  <r_i_glide_eff_state_penalty>  (365) 
0

>  <ligand_id>  (365) 
105

>  <original_smiles>  (365) 
O=C(N1CCN2CCCC2C1)N1C2C=C(c3cccnc3)CC(C2)C1CO

>  <smiles>  (365) 
[H]OC([H])([H])C1([H])N(C(=O)N2C([H])([H])C([H])([H])N3C([H])([H])C([H])([H])C([H])([H])C3([H])C2([H])[H])C2([H])C([H])=C(c3c([H])nc([H])c([H])c3[H])C([H])([H])C1([H])C2([H])[H]

$$$$
105:2:2
     RDKit          3D

 55 59  0  0  1  0  0  0  0  0999 V2000
   -1.2595   -1.3222    4.9498 O   0  0  0  0  0  0  0  0  0  0  0  0
   -0.0363   -1.2062    4.8627 C   0  0  0  0  0  0  0  0  0  0  0  0
    0.5655   -0.2527    4.1012 N   0  0  0  0  0  0  0  0  0  0  0  0
   -0.1569    0.4526    3.0154 C   0  0  0  0  0  0  0  0  0  0  0  0
   -0.0561    1.9912    3.1493 C   0  0  0  0  0  0  0  0  0  0  0  0
    1.3486    2.3702    3.2547 N   0  0  0  0  0  0  0  0  0  0  0  0
    1.5727    3.8011    3.4142 C   0  0  0  0  0  0  0  0  0  0  0  0
    3.0129    3.8670    3.9388 C   0  0  0  0  0  0  0  0  0  0  0  0
    3.2811    2.4790    4.5225 C   0  0  0  0  0  0  0  0  0  0  0  0
    1.9173    1.7920    4.4541 C   0  0  2  0  0  0  0  0  0  0  0  0
    1.9351    0.2679    4.3111 C   0  0  0  0  0  0  0  0  0  0  0  0
    0.7962   -2.0276    5.5560 N   0  0  0  0  0  0  0  0  0  0  0  0
    1.9037   -2.7903    4.9581 C   0  0  2  0  0  0  0  0  0  0  0  0
    1.3515   -3.9493    4.1438 C   0  0  0  0  0  0  0  0  0  0  0  0
    0.8823   -5.0774    4.7247 C   0  0  0  0  0  0  0  0  0  0  0  0
    0.3708   -6.2115    3.9130 C   0  0  0  0  0  0  0  0  0  0  0  0
   -0.4362   -7.2132    4.4974 C   0  0  0  0  0  0  0  0  0  0  0  0
   -0.9540   -8.2454    3.6969 C   0  0  0  0  0  0  0  0  0  0  0  0
   -0.6493   -8.2466    2.3250 C   0  0  0  0  0  0  0  0  0  0  0  0
    0.1100   -7.2934    1.7434 N   0  0  0  0  0  0  0  0  0  0  0  0
    0.6307   -6.3284    2.5269 C   0  0  0  0  0  0  0  0  0  0  0  0
    0.9278   -5.1663    6.2572 C   0  0  0  0  0  0  0  0  0  0  0  0
    1.4357   -3.8732    6.9521 C   0  0  1  0  0  0  0  0  0  0  0  0
    2.6318   -3.3375    6.1821 C   0  0  0  0  0  0  0  0  0  0  0  0
    0.4247   -2.7077    6.8106 C   0  0  1  0  0  0  0  0  0  0  0  0
    0.4898   -1.7346    8.0110 C   0  0  0  0  0  0  0  0  0  0  0  0
   -0.1818   -2.2887    9.1218 O   0  0  0  0  0  0  0  0  0  0  0  0
    0.2782    0.1427    2.0631 H   0  0  0  0  0  0  0  0  0  0  0  0
   -1.2154    0.1805    2.9692 H   0  0  0  0  0  0  0  0  0  0  0  0
   -0.4895    2.4704    2.2700 H   0  0  0  0  0  0  0  0  0  0  0  0
   -0.6159    2.3421    4.0208 H   0  0  0  0  0  0  0  0  0  0  0  0
    1.4399    4.3449    2.4794 H   0  0  0  0  0  0  0  0  0  0  0  0
    0.8848    4.2120    4.1528 H   0  0  0  0  0  0  0  0  0  0  0  0
    3.7068    4.0870    3.1266 H   0  0  0  0  0  0  0  0  0  0  0  0
    3.1202    4.6538    4.6851 H   0  0  0  0  0  0  0  0  0  0  0  0
    4.0100    1.9502    3.9077 H   0  0  0  0  0  0  0  0  0  0  0  0
    3.6735    2.5204    5.5371 H   0  0  0  0  0  0  0  0  0  0  0  0
    1.3265    2.0844    5.3260 H   0  0  0  0  0  0  0  0  0  0  0  0
    2.4057   -0.1161    5.2150 H   0  0  0  0  0  0  0  0  0  0  0  0
    2.5561   -0.0284    3.4663 H   0  0  0  0  0  0  0  0  0  0  0  0
    2.5955   -2.2242    4.3384 H   0  0  0  0  0  0  0  0  0  0  0  0
    1.3586   -3.7857    3.0755 H   0  0  0  0  0  0  0  0  0  0  0  0
   -0.6799   -7.1948    5.5449 H   0  0  0  0  0  0  0  0  0  0  0  0
   -1.5706   -9.0296    4.1202 H   0  0  0  0  0  0  0  0  0  0  0  0
   -1.0209   -9.0289    1.6772 H   0  0  0  0  0  0  0  0  0  0  0  0
    1.2451   -5.6228    1.9955 H   0  0  0  0  0  0  0  0  0  0  0  0
   -0.0630   -5.3949    6.6487 H   0  0  0  0  0  0  0  0  0  0  0  0
    1.5887   -5.9918    6.5098 H   0  0  0  0  0  0  0  0  0  0  0  0
    1.6758   -4.0855    7.9953 H   0  0  0  0  0  0  0  0  0  0  0  0
    3.3811   -4.0954    5.9417 H   0  0  0  0  0  0  0  0  0  0  0  0
    3.1258   -2.5307    6.7254 H   0  0  0  0  0  0  0  0  0  0  0  0
   -0.5922   -3.0986    6.7221 H   0  0  0  0  0  0  0  0  0  0  0  0
    1.5210   -1.4976    8.2874 H   0  0  0  0  0  0  0  0  0  0  0  0
   -0.0006   -0.7906    7.7744 H   0  0  0  0  0  0  0  0  0  0  0  0
    0.3588   -2.9723    9.5008 H   0  0  0  0  0  0  0  0  0  0  0  0
  1  2  2  0
  2  3  1  0
  2 12  1  0
  3 11  1  0
  3  4  1  0
  4  5  1  0
  4 28  1  0
  4 29  1  0
  5  6  1  0
  5 30  1  0
  5 31  1  0
  6 10  1  0
  6  7  1  0
  7  8  1  0
  7 32  1  0
  7 33  1  0
  8  9  1  0
  8 34  1  0
  8 35  1  0
  9 10  1  0
  9 36  1  0
  9 37  1  0
 10 11  1  0
 10 38  1  1
 11 39  1  0
 11 40  1  0
 12 25  1  0
 12 13  1  0
 13 24  1  0
 13 14  1  0
 13 41  1  6
 14 15  2  0
 14 42  1  0
 15 16  1  0
 15 22  1  0
 16 21  1  0
 16 17  2  0
 17 18  1  0
 17 43  1  0
 18 19  2  0
 18 44  1  0
 19 20  1  0
 19 45  1  0
 20 21  2  0
 21 46  1  0
 22 23  1  0
 22 47  1  0
 22 48  1  0
 23 24  1  0
 23 25  1  0
 23 49  1  1
 24 50  1  0
 24 51  1  0
 25 26  1  0
 25 52  1  6
 26 27  1  0
 26 53  1  0
 26 54  1  0
 27 55  1  0
M  END
>  <i_m_ct_stereo_status>  (366) 
1

>  <s_m_source_file>  (366) 
/var/tmp/pbs.5076255.sched01/tmpay8aiv4m/132fzfu5vr2.sdf

>  <i_m_source_file_index>  (366) 
37

>  <i_lp_mmshare_version>  (366) 
48012

>  <i_f3d_flags>  (366) 
0

>  <s_epik_input>  (366) 
W0NIMl0xW0NIMl1bQ0gyXVtDQEBIXShOMTIpW0NIMl1OKFtDSDJdW0NIMl0yKUMoPU8pTihbQ0BIXTM0KVtDQEhdKFtDSDJdW09IXSlbQ0BIXShbQ0gyXTQpW0NIMl1DKD1bQ0hdMyljNVtjSF1bY0hdW2NIXW5bY0hdNQ==

>  <s_epik_cmdline>  (366) 
J2VwaWtfcHl0aG9uJywgJy1waHQnLCAnMi4wJywgJy1waCcsICc3LjAnLCAnLXRuJywgJzgnLCAnLW1hJywgJzIwMCcsICctaW1hZScsICc8aW5maWxlLm1hZT4nLCAnLW9tYWUnLCAnPG91dGZpbGUubWFlPic=

>  <r_epik_Ionization_Penalty>  (366) 
2.52524

>  <r_epik_Ionization_Penalty_Charging>  (366) 
0

>  <r_epik_Ionization_Penalty_Neutral>  (366) 
2.52524

>  <r_epik_State_Penalty>  (366) 
2.6882

>  <r_epik_Charging_Adjusted_Penalty>  (366) 
2.6882

>  <i_epik_Tot_Q>  (366) 
0

>  <i_epik_Tot_abs_Q>  (366) 
0

>  <s_lp_Force_Field>  (366) 
OPLS3e

>  <r_lp_Energy>  (366) 
58.6505

>  <b_lp_Chiralities_Consistent>  (366) 
1

>  <s_lp_Variant>  (366) 
105:0-3

>  <s_i_glide_gridfile>  (366) 
pfpi4k_grid

>  <i_i_glide_lignum>  (366) 
37

>  <i_i_glide_rotatable_bonds>  (366) 
5

>  <r_i_docking_score>  (366) 
-2.55335

>  <r_i_glide_ligand_efficiency>  (366) 
-0.0945685

>  <r_i_glide_ligand_efficiency_sa>  (366) 
-0.283706

>  <r_i_glide_ligand_efficiency_ln>  (366) 
-0.594378

>  <r_i_glide_gscore>  (366) 
-2.55335

>  <r_i_glide_lipo>  (366) 
-0.00816272

>  <r_i_glide_hbond>  (366) 
-0.16

>  <r_i_glide_metal>  (366) 
-0

>  <r_i_glide_rewards>  (366) 
-0.896778

>  <r_i_glide_evdw>  (366) 
-23.0379

>  <r_i_glide_ecoul>  (366) 
-5.83446

>  <r_i_glide_erotb>  (366) 
0.567723

>  <r_i_glide_esite>  (366) 
-0.0290687

>  <r_i_glide_emodel>  (366) 
-34.9317

>  <r_i_glide_energy>  (366) 
-28.8724

>  <r_i_glide_einternal>  (366) 
0.489962

>  <r_i_glide_intrahb_reward>  (366) 
-0

>  <i_i_glide_confnum>  (366) 
5

>  <i_i_glide_posenum>  (366) 
18

>  <r_i_glide_eff_state_penalty>  (366) 
0

>  <ligand_id>  (366) 
105

>  <original_smiles>  (366) 
O=C(N1CCN2CCCC2C1)N1C2C=C(c3cccnc3)CC(C2)C1CO

>  <smiles>  (366) 
[H]OC([H])([H])C1([H])N(C(=O)N2C([H])([H])C([H])([H])N3C([H])([H])C([H])([H])C([H])([H])C3([H])C2([H])[H])C2([H])C([H])=C(c3c([H])nc([H])c([H])c3[H])C([H])([H])C1([H])C2([H])[H]

$$$$
106:0:0
     RDKit          3D

 61 66  0  0  1  0  0  0  0  0999 V2000
    5.7448   -5.8780    5.1268 C   0  0  0  0  0  0  0  0  0  0  0  0
    4.8667   -5.6098    4.1489 C   0  0  0  0  0  0  0  0  0  0  0  0
    4.4379   -4.1967    3.9370 C   0  0  0  0  0  0  0  0  0  0  0  0
    4.4307   -3.3702    4.8706 O   0  0  0  0  0  0  0  0  0  0  0  0
    3.9417   -3.7592    2.5412 C   0  0  2  0  0  0  0  0  0  0  0  0
    2.4265   -4.1817    2.5120 C   0  0  0  0  0  0  0  0  0  0  0  0
    2.0895   -5.6743    2.2986 C   0  0  2  0  0  0  0  0  0  0  0  0
    0.7084   -5.9489    2.1730 O   0  0  0  0  0  0  0  0  0  0  0  0
    0.4557   -7.2267    2.4146 C   0  0  0  0  0  0  0  0  0  0  0  0
   -0.6440   -7.7701    2.3460 O   0  0  0  0  0  0  0  0  0  0  0  0
    1.7475   -7.9369    2.8673 C   0  0  1  0  0  0  0  0  0  0  0  0
    2.3112   -8.8524    1.7787 C   0  0  0  0  0  0  0  0  0  0  0  0
    2.6354   -6.7131    3.3020 C   0  0  2  0  0  0  0  0  0  0  0  0
    2.1810   -6.3245    4.6043 O   0  0  0  0  0  0  0  0  0  0  0  0
    2.2349   -7.0079    5.7805 C   0  0  0  0  0  0  0  0  0  0  0  0
    2.9053   -8.4077    5.7782 C   0  0  0  0  0  0  0  0  0  0  0  0
    1.7915   -6.5148    6.8129 O   0  0  0  0  0  0  0  0  0  0  0  0
    4.2226   -6.7452    3.3027 C   0  0  1  0  0  0  0  0  0  0  0  0
    4.9865   -6.8810    1.9594 C   0  0  0  0  0  0  0  0  0  0  0  0
    4.8912   -5.7691    0.8931 C   0  0  0  0  0  0  0  0  0  0  0  0
    4.9903   -4.3310    1.4556 C   0  0  1  0  0  0  0  0  0  0  0  0
    5.3004   -3.2259    0.4658 C   0  0  2  0  0  0  0  0  0  0  0  0
    6.0837   -2.2270    1.1564 O   0  0  0  0  0  0  0  0  0  0  0  0
    5.4656   -1.7303    2.3420 C   0  0  0  0  0  0  0  0  0  0  0  0
    3.9928   -2.1758    2.3412 C   0  0  1  0  0  0  0  0  0  0  0  0
    3.4406   -1.7464    0.9241 C   0  0  1  0  0  0  0  0  0  0  0  0
    3.7029   -0.3888    0.6354 O   0  0  0  0  0  0  0  0  0  0  0  0
    3.9830   -2.6689   -0.1970 C   0  0  2  0  0  0  0  0  0  0  0  0
    2.8734   -3.4312   -0.9150 C   0  0  0  0  0  0  0  0  0  0  0  0
    2.5239   -3.0363   -2.3485 C   0  0  0  0  0  0  0  0  0  0  0  0
    2.2596   -4.3624   -0.3903 O   0  0  0  0  0  0  0  0  0  0  0  0
    5.2786   -2.9328   -0.9751 C   0  0  1  0  0  0  0  0  0  0  0  0
    5.8177   -1.7001   -1.4201 O   0  0  0  0  0  0  0  0  0  0  0  0
    6.0649   -6.8891    5.3501 H   0  0  0  0  0  0  0  0  0  0  0  0
    6.1589   -5.0969    5.7486 H   0  0  0  0  0  0  0  0  0  0  0  0
    1.9455   -3.8522    3.4451 H   0  0  0  0  0  0  0  0  0  0  0  0
    1.8719   -3.6120    1.7667 H   0  0  0  0  0  0  0  0  0  0  0  0
    2.4503   -5.9850    1.3278 H   0  0  0  0  0  0  0  0  0  0  0  0
    1.3971   -8.5590    3.6813 H   0  0  0  0  0  0  0  0  0  0  0  0
    1.5791   -9.5970    1.4805 H   0  0  0  0  0  0  0  0  0  0  0  0
    3.1920   -9.3771    2.1116 H   0  0  0  0  0  0  0  0  0  0  0  0
    2.5921   -8.2796    0.8831 H   0  0  0  0  0  0  0  0  0  0  0  0
    3.9535   -8.3149    5.5205 H   0  0  0  0  0  0  0  0  0  0  0  0
    2.3956   -9.1059    5.1132 H   0  0  0  0  0  0  0  0  0  0  0  0
    2.8632   -8.8082    6.8092 H   0  0  0  0  0  0  0  0  0  0  0  0
    4.5106   -7.6708    3.7716 H   0  0  0  0  0  0  0  0  0  0  0  0
    6.0447   -6.9833    2.2199 H   0  0  0  0  0  0  0  0  0  0  0  0
    4.7507   -7.8286    1.4887 H   0  0  0  0  0  0  0  0  0  0  0  0
    5.7565   -5.9091    0.2378 H   0  0  0  0  0  0  0  0  0  0  0  0
    4.0457   -5.9116    0.2257 H   0  0  0  0  0  0  0  0  0  0  0  0
    5.9419   -4.4050    1.9901 H   0  0  0  0  0  0  0  0  0  0  0  0
    6.0149   -2.0981    3.2045 H   0  0  0  0  0  0  0  0  0  0  0  0
    5.5771   -0.6487    2.3766 H   0  0  0  0  0  0  0  0  0  0  0  0
    3.4656   -1.6600    3.1521 H   0  0  0  0  0  0  0  0  0  0  0  0
    2.3511   -1.7762    0.9461 H   0  0  0  0  0  0  0  0  0  0  0  0
    3.1478   -0.1358   -0.0860 H   0  0  0  0  0  0  0  0  0  0  0  0
    1.9098   -2.1222   -2.3264 H   0  0  0  0  0  0  0  0  0  0  0  0
    1.9469   -3.8339   -2.8009 H   0  0  0  0  0  0  0  0  0  0  0  0
    3.4340   -2.8537   -2.9373 H   0  0  0  0  0  0  0  0  0  0  0  0
    5.3251   -3.7515   -1.6920 H   0  0  0  0  0  0  0  0  0  0  0  0
    5.0974   -1.1723   -1.7190 H   0  0  0  0  0  0  0  0  0  0  0  0
  1  2  2  0
  1 34  1  0
  1 35  1  0
  2 18  1  0
  2  3  1  0
  3  4  2  0
  3  5  1  0
  5 21  1  0
  5 25  1  0
  5  6  1  6
  6  7  1  0
  6 36  1  0
  6 37  1  0
  7 13  1  0
  7  8  1  0
  7 38  1  6
  8  9  1  0
  9 10  2  0
  9 11  1  0
 11 12  1  0
 11 13  1  0
 11 39  1  1
 12 40  1  0
 12 41  1  0
 12 42  1  0
 13 14  1  1
 13 18  1  0
 14 15  1  0
 15 16  1  0
 15 17  2  0
 16 43  1  0
 16 44  1  0
 16 45  1  0
 18 19  1  0
 18 46  1  1
 19 20  1  0
 19 47  1  0
 19 48  1  0
 20 21  1  0
 20 49  1  0
 20 50  1  0
 21 22  1  0
 21 51  1  1
 22 28  1  0
 22 32  1  0
 22 23  1  1
 23 24  1  0
 24 25  1  0
 24 52  1  0
 24 53  1  0
 25 26  1  0
 25 54  1  1
 26 27  1  0
 26 28  1  0
 26 55  1  1
 27 56  1  0
 28 29  1  6
 28 32  1  0
 29 30  1  0
 29 31  2  0
 30 57  1  0
 30 58  1  0
 30 59  1  0
 32 33  1  0
 32 60  1  6
 33 61  1  0
M  END
>  <i_m_ct_stereo_status>  (367) 
1

>  <s_m_source_file>  (367) 
/var/tmp/pbs.5076255.sched01/tmpay8aiv4m/132fzfu5vr2.sdf

>  <i_m_source_file_index>  (367) 
38

>  <i_lp_mmshare_version>  (367) 
48012

>  <i_f3d_flags>  (367) 
0

>  <s_epik_input>  (367) 
W0NIM11bQ0BASF0xQyg9TylPW0NAQEhdKFtDSDJdMilbQ0BdMShPQyg9TylbQ0gzXSlbQ0BIXShDKD1bQ0gyXSlDMz1PKVtDSDJdW0NIMl1bQ0BIXShbQ0BAXTIzNClbQ0BAXTU2W0NAXShDKD1PKVtDSDNdKShbQ0BIXTZbT0hdKVtDQEhdKFtPSF0pW0NAQEhdNFtDSDJdTzU=

>  <s_epik_cmdline>  (367) 
J2VwaWtfcHl0aG9uJywgJy1waHQnLCAnMi4wJywgJy1waCcsICc3LjAnLCAnLXRuJywgJzgnLCAnLW1hJywgJzIwMCcsICctaW1hZScsICc8aW5maWxlLm1hZT4nLCAnLW9tYWUnLCAnPG91dGZpbGUubWFlPic=

>  <r_lp_tautomer_probability>  (367) 
1

>  <r_epik_Ionization_Penalty>  (367) 
8.16568e-06

>  <r_epik_Ionization_Penalty_Charging>  (367) 
0

>  <r_epik_Ionization_Penalty_Neutral>  (367) 
8.16568e-06

>  <r_epik_State_Penalty>  (367) 
-0

>  <r_epik_Charging_Adjusted_Penalty>  (367) 
0

>  <i_epik_Tot_Q>  (367) 
0

>  <i_epik_Tot_abs_Q>  (367) 
0

>  <s_epik_Chemistry_Notes>  (367) 
This compound has an ester and may undergo hydrolysis at high or low pH.

>  <s_lp_Force_Field>  (367) 
OPLS3e

>  <r_lp_Energy>  (367) 
80.6236

>  <b_lp_Chiralities_Consistent>  (367) 
1

>  <s_lp_Variant>  (367) 
106:0-1

>  <s_i_glide_gridfile>  (367) 
pfpi4k_grid

>  <i_i_glide_lignum>  (367) 
38

>  <i_i_glide_rotatable_bonds>  (367) 
5

>  <r_i_docking_score>  (367) 
-3.10471

>  <r_i_glide_ligand_efficiency>  (367) 
-0.094082

>  <r_i_glide_ligand_efficiency_sa>  (367) 
-0.301771

>  <r_i_glide_ligand_efficiency_ln>  (367) 
-0.690471

>  <r_i_glide_gscore>  (367) 
-3.10471

>  <r_i_glide_lipo>  (367) 
-0.3241

>  <r_i_glide_hbond>  (367) 
-0.128614

>  <r_i_glide_metal>  (367) 
-0

>  <r_i_glide_rewards>  (367) 
-0.315602

>  <r_i_glide_evdw>  (367) 
-29.8075

>  <r_i_glide_ecoul>  (367) 
-5.9015

>  <r_i_glide_erotb>  (367) 
0.0949305

>  <r_i_glide_esite>  (367) 
-0.0557206

>  <r_i_glide_emodel>  (367) 
-39.3616

>  <r_i_glide_energy>  (367) 
-35.709

>  <r_i_glide_einternal>  (367) 
7.03619

>  <r_i_glide_intrahb_reward>  (367) 
-0

>  <i_i_glide_confnum>  (367) 
3

>  <i_i_glide_posenum>  (367) 
35

>  <r_i_glide_eff_state_penalty>  (367) 
0

>  <ligand_id>  (367) 
106

>  <original_smiles>  (367) 
C=C1C(=O)C23CC4OC(=O)C(C)C4(OC(C)=O)C1CCC2C12OCC3C(O)C1(C(C)=O)C2O

>  <smiles>  (367) 
[H]OC1([H])C2([H])C([H])([H])OC3(C([H])(O[H])C13C(=O)C([H])([H])[H])C1([H])C([H])([H])C([H])([H])C3([H])C(=C([H])[H])C(=O)C21C([H])([H])C1([H])OC(=O)C([H])(C([H])([H])[H])C13OC(=O)C([H])([H])[H]

$$$$
107:0:0
     RDKit          3D

 64 67  0  0  1  0  0  0  0  0999 V2000
    3.3866   -0.2769   -4.8399 C   0  0  0  0  0  0  0  0  0  0  0  0
    2.9977   -0.7644   -3.5715 O   0  0  0  0  0  0  0  0  0  0  0  0
    3.6657   -1.7612   -2.9909 C   0  0  0  0  0  0  0  0  0  0  0  0
    4.5202   -2.4559   -3.5399 O   0  0  0  0  0  0  0  0  0  0  0  0
    3.2399   -1.8503   -1.6778 N   0  0  0  0  0  0  0  0  0  0  0  0
    4.0192   -2.3806   -0.6323 C   0  0  0  0  0  0  0  0  0  0  0  0
    4.7672   -1.5274    0.2110 C   0  0  0  0  0  0  0  0  0  0  0  0
    5.4613   -2.0896    1.2860 C   0  0  0  0  0  0  0  0  0  0  0  0
    5.4342   -3.4792    1.5381 C   0  0  0  0  0  0  0  0  0  0  0  0
    4.6703   -4.3670    0.6751 C   0  0  0  0  0  0  0  0  0  0  0  0
    3.9807   -3.7701   -0.3970 C   0  0  0  0  0  0  0  0  0  0  0  0
    4.6532   -5.7805    0.8554 N   0  0  0  0  0  0  0  0  0  0  0  0
    4.2742   -6.5726   -0.2930 C   0  0  0  0  0  0  0  0  0  0  0  0
    4.5803   -6.4698    2.1593 C   0  0  2  0  0  0  0  0  0  0  0  0
    3.2134   -6.2979    2.9465 C   0  0  1  0  0  0  0  0  0  0  0  0
    2.0727   -7.1902    2.3677 C   0  0  0  0  0  0  0  0  0  0  0  0
    2.3754   -8.1385    1.6420 O   0  0  0  0  0  0  0  0  0  0  0  0
    0.7806   -6.8234    2.5554 N   0  0  0  0  0  0  0  0  0  0  0  0
    0.2573   -6.1022    3.7421 C   0  0  0  0  0  0  0  0  0  0  0  0
   -0.7720   -7.0541    4.4203 C   0  0  0  0  0  0  0  0  0  0  0  0
   -1.8242   -7.3775    3.5177 O   0  0  0  0  0  0  0  0  0  0  0  0
   -1.3289   -8.1179    2.4102 C   0  0  0  0  0  0  0  0  0  0  0  0
   -0.2876   -7.2775    1.6393 C   0  0  0  0  0  0  0  0  0  0  0  0
    3.4565   -6.6083    4.4732 C   0  0  0  0  0  0  0  0  0  0  0  0
    3.9983   -5.3559    5.2645 C   0  0  1  0  0  0  0  0  0  0  0  0
    4.6810   -5.8492    6.5382 C   0  0  0  0  0  0  0  0  0  0  0  0
    4.2589   -5.5330    7.6511 O   0  0  0  0  0  0  0  0  0  0  0  0
    5.6955   -6.6957    6.2912 O   0  0  0  0  0  0  0  0  0  0  0  0
    6.3912   -7.2882    7.3695 C   0  0  0  0  0  0  0  0  0  0  0  0
    4.9248   -4.4269    4.4802 C   0  0  0  0  0  0  0  0  0  0  0  0
    5.6545   -4.7951    3.4080 C   0  0  0  0  0  0  0  0  0  0  0  0
    6.2032   -3.8849    2.5641 O   0  0  0  0  0  0  0  0  0  0  0  0
    5.7387   -6.0795    2.9321 N   0  0  0  0  0  0  0  0  0  0  0  0
    7.0483   -6.5638    2.5071 C   0  0  0  0  0  0  0  0  0  0  0  0
    2.7042    0.5154   -5.1467 H   0  0  0  0  0  0  0  0  0  0  0  0
    3.4027   -1.0517   -5.6058 H   0  0  0  0  0  0  0  0  0  0  0  0
    4.3839    0.1477   -4.7706 H   0  0  0  0  0  0  0  0  0  0  0  0
    2.4057   -1.3119   -1.4410 H   0  0  0  0  0  0  0  0  0  0  0  0
    4.7736   -0.4569    0.0509 H   0  0  0  0  0  0  0  0  0  0  0  0
    6.0544   -1.4533    1.9469 H   0  0  0  0  0  0  0  0  0  0  0  0
    3.3639   -4.3653   -1.0553 H   0  0  0  0  0  0  0  0  0  0  0  0
    4.6970   -6.1549   -1.2065 H   0  0  0  0  0  0  0  0  0  0  0  0
    3.1883   -6.5703   -0.3251 H   0  0  0  0  0  0  0  0  0  0  0  0
    4.6122   -7.6036   -0.2153 H   0  0  0  0  0  0  0  0  0  0  0  0
    4.7381   -7.5348    1.9745 H   0  0  0  0  0  0  0  0  0  0  0  0
    2.8649   -5.2667    2.7760 H   0  0  0  0  0  0  0  0  0  0  0  0
    0.9366   -5.7708    4.4768 H   0  0  0  0  0  0  0  0  0  0  0  0
   -0.1861   -5.1732    3.3940 H   0  0  0  0  0  0  0  0  0  0  0  0
   -0.3100   -7.9773    4.8018 H   0  0  0  0  0  0  0  0  0  0  0  0
   -1.1791   -6.5459    5.2877 H   0  0  0  0  0  0  0  0  0  0  0  0
   -0.9103   -9.0700    2.7447 H   0  0  0  0  0  0  0  0  0  0  0  0
   -2.1792   -8.3517    1.7757 H   0  0  0  0  0  0  0  0  0  0  0  0
   -0.7650   -6.3954    1.2158 H   0  0  0  0  0  0  0  0  0  0  0  0
    0.0703   -7.8561    0.7738 H   0  0  0  0  0  0  0  0  0  0  0  0
    2.5979   -6.9566    5.0036 H   0  0  0  0  0  0  0  0  0  0  0  0
    4.1335   -7.4873    4.5236 H   0  0  0  0  0  0  0  0  0  0  0  0
    3.1470   -4.7272    5.5590 H   0  0  0  0  0  0  0  0  0  0  0  0
    7.1759   -7.9295    6.9730 H   0  0  0  0  0  0  0  0  0  0  0  0
    5.7351   -7.8996    7.9928 H   0  0  0  0  0  0  0  0  0  0  0  0
    6.8570   -6.5201    7.9874 H   0  0  0  0  0  0  0  0  0  0  0  0
    4.8797   -3.3795    4.7669 H   0  0  0  0  0  0  0  0  0  0  0  0
    7.7872   -6.3372    3.2751 H   0  0  0  0  0  0  0  0  0  0  0  0
    7.3776   -6.0746    1.5892 H   0  0  0  0  0  0  0  0  0  0  0  0
    7.0413   -7.6431    2.3551 H   0  0  0  0  0  0  0  0  0  0  0  0
  1  2  1  0
  1 35  1  0
  1 36  1  0
  1 37  1  0
  2  3  1  0
  3  4  2  0
  3  5  1  0
  5  6  1  0
  5 38  1  0
  6 11  2  0
  6  7  1  0
  7  8  2  0
  7 39  1  0
  8  9  1  0
  8 40  1  0
  9 32  1  0
  9 10  2  0
 10 11  1  0
 10 12  1  0
 11 41  1  0
 12 13  1  0
 12 14  1  0
 13 42  1  0
 13 43  1  0
 13 44  1  0
 14 33  1  0
 14 15  1  0
 14 45  1  6
 15 16  1  0
 15 24  1  0
 15 46  1  1
 16 17  2  0
 16 18  1  0
 18 23  1  0
 18 19  1  0
 19 20  1  0
 19 47  1  0
 19 48  1  0
 20 21  1  0
 20 49  1  0
 20 50  1  0
 21 22  1  0
 22 23  1  0
 22 51  1  0
 22 52  1  0
 23 53  1  0
 23 54  1  0
 24 25  1  0
 24 55  1  0
 24 56  1  0
 25 26  1  0
 25 30  1  0
 25 57  1  1
 26 27  2  0
 26 28  1  0
 28 29  1  0
 29 58  1  0
 29 59  1  0
 29 60  1  0
 30 31  2  0
 30 61  1  0
 31 32  1  0
 31 33  1  0
 33 34  1  0
 34 62  1  0
 34 63  1  0
 34 64  1  0
M  END
>  <i_m_ct_stereo_status>  (368) 
1

>  <s_m_source_file>  (368) 
/var/tmp/pbs.5076255.sched01/tmpay8aiv4m/132fzfu5vr2.sdf

>  <i_m_source_file_index>  (368) 
39

>  <i_lp_mmshare_version>  (368) 
48012

>  <i_f3d_flags>  (368) 
0

>  <s_epik_input>  (368) 
W0NIM11PQyg9TylbTkhdYyhbY0hdW2NIXTEpW2NIXWMoYzEyKU4oW0NIM10pW0NAQEhdM1tDQEhdKFtDSDJdW0NAQEhdKEMoPU8pT1tDSDNdKVtDSF09QyhPMilOM1tDSDNdKUMoPU8pTjRbQ0gyXVtDSDJdT1tDSDJdW0NIMl00

>  <s_epik_cmdline>  (368) 
J2VwaWtfcHl0aG9uJywgJy1waHQnLCAnMi4wJywgJy1waCcsICc3LjAnLCAnLXRuJywgJzgnLCAnLW1hJywgJzIwMCcsICctaW1hZScsICc8aW5maWxlLm1hZT4nLCAnLW9tYWUnLCAnPG91dGZpbGUubWFlPic=

>  <r_lp_tautomer_probability>  (368) 
1

>  <r_epik_Ionization_Penalty>  (368) 
1.21319e-06

>  <r_epik_Ionization_Penalty_Charging>  (368) 
2.73975e-10

>  <r_epik_Ionization_Penalty_Neutral>  (368) 
1.21292e-06

>  <r_epik_State_Penalty>  (368) 
-0

>  <r_epik_Charging_Adjusted_Penalty>  (368) 
2.73975e-10

>  <i_epik_Tot_Q>  (368) 
0

>  <i_epik_Tot_abs_Q>  (368) 
0

>  <s_epik_Chemistry_Notes>  (368) 
This compound has an ester and may undergo hydrolysis at high or low pH. This compound has an imine and may undergo hydrolysis. This compound contains an acetal/aminal-like group ( X-CH(R)-Y where X, Y are N, S, or O) that may be acid/base labile, releasing an aldehyde.

>  <s_lp_Force_Field>  (368) 
OPLS3e

>  <r_lp_Energy>  (368) 
67.6646

>  <b_lp_Chiralities_Consistent>  (368) 
1

>  <s_lp_Variant>  (368) 
107:0-1

>  <s_i_glide_gridfile>  (368) 
pfpi4k_grid

>  <i_i_glide_lignum>  (368) 
39

>  <i_i_glide_rotatable_bonds>  (368) 
7

>  <r_i_docking_score>  (368) 
-2.74894

>  <r_i_glide_ligand_efficiency>  (368) 
-0.0808513

>  <r_i_glide_ligand_efficiency_sa>  (368) 
-0.261927

>  <r_i_glide_ligand_efficiency_ln>  (368) 
-0.607319

>  <r_i_glide_gscore>  (368) 
-2.74894

>  <r_i_glide_lipo>  (368) 
-0.437828

>  <r_i_glide_hbond>  (368) 
-0.16

>  <r_i_glide_metal>  (368) 
-0

>  <r_i_glide_rewards>  (368) 
-0.345045

>  <r_i_glide_evdw>  (368) 
-28.6258

>  <r_i_glide_ecoul>  (368) 
-4.46787

>  <r_i_glide_erotb>  (368) 
0.449364

>  <r_i_glide_esite>  (368) 
-0.153966

>  <r_i_glide_emodel>  (368) 
-31.9341

>  <r_i_glide_energy>  (368) 
-33.0936

>  <r_i_glide_einternal>  (368) 
11.4673

>  <r_i_glide_intrahb_reward>  (368) 
-0

>  <i_i_glide_confnum>  (368) 
4

>  <i_i_glide_posenum>  (368) 
4

>  <r_i_glide_eff_state_penalty>  (368) 
0

>  <ligand_id>  (368) 
107

>  <original_smiles>  (368) 
COC(=O)Nc1ccc2c(c1)N(C)C1C(C(=O)N3CCOCC3)CC(C(=O)OC)C=C(O2)N1C

>  <smiles>  (368) 
[H]C1=C2Oc3c([H])c([H])c(N([H])C(=O)OC([H])([H])[H])c([H])c3N(C([H])([H])[H])C([H])(N2C([H])([H])[H])C([H])(C(=O)N2C([H])([H])C([H])([H])OC([H])([H])C2([H])[H])C([H])([H])C1([H])C(=O)OC([H])([H])[H]

$$$$
107:0:1
     RDKit          3D

 64 67  0  0  1  0  0  0  0  0999 V2000
    1.3949    0.9907    1.8161 C   0  0  0  0  0  0  0  0  0  0  0  0
    0.4841    1.0732    2.9137 O   0  0  0  0  0  0  0  0  0  0  0  0
    0.2030    0.0200    3.7229 C   0  0  0  0  0  0  0  0  0  0  0  0
   -0.7243    0.0556    4.5434 O   0  0  0  0  0  0  0  0  0  0  0  0
    1.0843   -1.0382    3.5266 N   0  0  0  0  0  0  0  0  0  0  0  0
    1.1675   -2.3017    4.1475 C   0  0  0  0  0  0  0  0  0  0  0  0
    0.0911   -2.8662    4.8714 C   0  0  0  0  0  0  0  0  0  0  0  0
    0.2247   -4.1778    5.3733 C   0  0  0  0  0  0  0  0  0  0  0  0
    1.3798   -4.9515    5.1275 C   0  0  0  0  0  0  0  0  0  0  0  0
    2.4971   -4.3872    4.3820 C   0  0  0  0  0  0  0  0  0  0  0  0
    2.3529   -3.0264    4.0008 C   0  0  0  0  0  0  0  0  0  0  0  0
    3.7098   -5.0891    4.0657 N   0  0  0  0  0  0  0  0  0  0  0  0
    4.9131   -4.3318    3.7234 C   0  0  0  0  0  0  0  0  0  0  0  0
    3.7931   -6.5487    3.7705 C   0  0  2  0  0  0  0  0  0  0  0  0
    3.1575   -6.9234    2.3824 C   0  0  1  0  0  0  0  0  0  0  0  0
    4.1079   -6.5256    1.1923 C   0  0  0  0  0  0  0  0  0  0  0  0
    5.0537   -7.2733    0.9469 O   0  0  0  0  0  0  0  0  0  0  0  0
    3.8967   -5.3903    0.4848 N   0  0  0  0  0  0  0  0  0  0  0  0
    4.9504   -4.8172   -0.3961 C   0  0  0  0  0  0  0  0  0  0  0  0
    5.2047   -3.3237   -0.0803 C   0  0  0  0  0  0  0  0  0  0  0  0
    3.9773   -2.6105   -0.1962 O   0  0  0  0  0  0  0  0  0  0  0  0
    3.0395   -3.1153    0.7311 C   0  0  0  0  0  0  0  0  0  0  0  0
    2.6626   -4.5719    0.4284 C   0  0  0  0  0  0  0  0  0  0  0  0
    2.7772   -8.4399    2.2938 C   0  0  0  0  0  0  0  0  0  0  0  0
    1.3981   -8.7823    2.9564 C   0  0  1  0  0  0  0  0  0  0  0  0
    1.3782  -10.2426    3.4189 C   0  0  0  0  0  0  0  0  0  0  0  0
    0.6117  -11.0549    2.8988 O   0  0  0  0  0  0  0  0  0  0  0  0
    2.2659  -10.5021    4.3936 O   0  0  0  0  0  0  0  0  0  0  0  0
    2.4137  -11.8287    4.8733 C   0  0  0  0  0  0  0  0  0  0  0  0
    0.9718   -7.8710    4.1023 C   0  0  0  0  0  0  0  0  0  0  0  0
    1.8040   -7.2110    4.9157 C   0  0  0  0  0  0  0  0  0  0  0  0
    1.3346   -6.1943    5.6887 O   0  0  0  0  0  0  0  0  0  0  0  0
    3.1794   -7.2687    4.8728 N   0  0  0  0  0  0  0  0  0  0  0  0
    3.9057   -7.2854    6.1340 C   0  0  0  0  0  0  0  0  0  0  0  0
    1.5068    1.9557    1.3292 H   0  0  0  0  0  0  0  0  0  0  0  0
    0.9930    0.2706    1.1054 H   0  0  0  0  0  0  0  0  0  0  0  0
    2.3825    0.6489    2.1335 H   0  0  0  0  0  0  0  0  0  0  0  0
    1.8234   -0.8286    2.8556 H   0  0  0  0  0  0  0  0  0  0  0  0
   -0.8175   -2.3290    5.0582 H   0  0  0  0  0  0  0  0  0  0  0  0
   -0.5810   -4.5911    5.9591 H   0  0  0  0  0  0  0  0  0  0  0  0
    3.1769   -2.4740    3.5415 H   0  0  0  0  0  0  0  0  0  0  0  0
    4.9630   -3.3458    4.1940 H   0  0  0  0  0  0  0  0  0  0  0  0
    4.9693   -4.2156    2.6466 H   0  0  0  0  0  0  0  0  0  0  0  0
    5.8281   -4.8776    3.9736 H   0  0  0  0  0  0  0  0  0  0  0  0
    4.8484   -6.8434    3.7668 H   0  0  0  0  0  0  0  0  0  0  0  0
    2.2027   -6.4263    2.3067 H   0  0  0  0  0  0  0  0  0  0  0  0
    5.9076   -5.3377   -0.3310 H   0  0  0  0  0  0  0  0  0  0  0  0
    4.6081   -4.9051   -1.4223 H   0  0  0  0  0  0  0  0  0  0  0  0
    5.6677   -3.2079    0.9034 H   0  0  0  0  0  0  0  0  0  0  0  0
    5.9081   -2.8732   -0.7807 H   0  0  0  0  0  0  0  0  0  0  0  0
    3.5286   -3.0821    1.6909 H   0  0  0  0  0  0  0  0  0  0  0  0
    2.1410   -2.5074    0.8400 H   0  0  0  0  0  0  0  0  0  0  0  0
    2.2140   -4.6845   -0.5651 H   0  0  0  0  0  0  0  0  0  0  0  0
    1.9093   -4.8325    1.1679 H   0  0  0  0  0  0  0  0  0  0  0  0
    2.6664   -8.7004    1.2399 H   0  0  0  0  0  0  0  0  0  0  0  0
    3.5912   -9.0605    2.6741 H   0  0  0  0  0  0  0  0  0  0  0  0
    0.6237   -8.6681    2.1937 H   0  0  0  0  0  0  0  0  0  0  0  0
    3.1531  -11.8489    5.6739 H   0  0  0  0  0  0  0  0  0  0  0  0
    2.7631  -12.4932    4.0810 H   0  0  0  0  0  0  0  0  0  0  0  0
    1.4761  -12.2182    5.2712 H   0  0  0  0  0  0  0  0  0  0  0  0
   -0.0912   -7.6889    4.1722 H   0  0  0  0  0  0  0  0  0  0  0  0
    3.4310   -8.0039    6.8043 H   0  0  0  0  0  0  0  0  0  0  0  0
    3.8821   -6.3071    6.6235 H   0  0  0  0  0  0  0  0  0  0  0  0
    4.9415   -7.5883    5.9853 H   0  0  0  0  0  0  0  0  0  0  0  0
  1  2  1  0
  1 35  1  0
  1 36  1  0
  1 37  1  0
  2  3  1  0
  3  4  2  0
  3  5  1  0
  5  6  1  0
  5 38  1  0
  6 11  2  0
  6  7  1  0
  7  8  2  0
  7 39  1  0
  8  9  1  0
  8 40  1  0
  9 32  1  0
  9 10  2  0
 10 11  1  0
 10 12  1  0
 11 41  1  0
 12 13  1  0
 12 14  1  0
 13 42  1  0
 13 43  1  0
 13 44  1  0
 14 33  1  0
 14 15  1  0
 14 45  1  6
 15 16  1  0
 15 24  1  0
 15 46  1  6
 16 17  2  0
 16 18  1  0
 18 23  1  0
 18 19  1  0
 19 20  1  0
 19 47  1  0
 19 48  1  0
 20 21  1  0
 20 49  1  0
 20 50  1  0
 21 22  1  0
 22 23  1  0
 22 51  1  0
 22 52  1  0
 23 53  1  0
 23 54  1  0
 24 25  1  0
 24 55  1  0
 24 56  1  0
 25 26  1  0
 25 30  1  0
 25 57  1  6
 26 27  2  0
 26 28  1  0
 28 29  1  0
 29 58  1  0
 29 59  1  0
 29 60  1  0
 30 31  2  0
 30 61  1  0
 31 32  1  0
 31 33  1  0
 33 34  1  0
 34 62  1  0
 34 63  1  0
 34 64  1  0
M  END
>  <i_m_ct_stereo_status>  (369) 
1

>  <s_m_source_file>  (369) 
/var/tmp/pbs.5076255.sched01/tmpay8aiv4m/132fzfu5vr2.sdf

>  <i_m_source_file_index>  (369) 
39

>  <i_lp_mmshare_version>  (369) 
48012

>  <i_f3d_flags>  (369) 
0

>  <s_epik_input>  (369) 
W0NIM11PQyg9TylbTkhdYyhbY0hdW2NIXTEpW2NIXWMoYzEyKU4oW0NIM10pW0NAQEhdM1tDQEhdKFtDSDJdW0NAQEhdKEMoPU8pT1tDSDNdKVtDSF09QyhPMilOM1tDSDNdKUMoPU8pTjRbQ0gyXVtDSDJdT1tDSDJdW0NIMl00

>  <s_epik_cmdline>  (369) 
J2VwaWtfcHl0aG9uJywgJy1waHQnLCAnMi4wJywgJy1waCcsICc3LjAnLCAnLXRuJywgJzgnLCAnLW1hJywgJzIwMCcsICctaW1hZScsICc8aW5maWxlLm1hZT4nLCAnLW9tYWUnLCAnPG91dGZpbGUubWFlPic=

>  <r_lp_tautomer_probability>  (369) 
1

>  <r_epik_Ionization_Penalty>  (369) 
1.21319e-06

>  <r_epik_Ionization_Penalty_Charging>  (369) 
2.73975e-10

>  <r_epik_Ionization_Penalty_Neutral>  (369) 
1.21292e-06

>  <r_epik_State_Penalty>  (369) 
-0

>  <r_epik_Charging_Adjusted_Penalty>  (369) 
2.73975e-10

>  <i_epik_Tot_Q>  (369) 
0

>  <i_epik_Tot_abs_Q>  (369) 
0

>  <s_epik_Chemistry_Notes>  (369) 
This compound has an ester and may undergo hydrolysis at high or low pH. This compound has an imine and may undergo hydrolysis. This compound contains an acetal/aminal-like group ( X-CH(R)-Y where X, Y are N, S, or O) that may be acid/base labile, releasing an aldehyde.

>  <s_lp_Force_Field>  (369) 
OPLS3e

>  <r_lp_Energy>  (369) 
67.6646

>  <b_lp_Chiralities_Consistent>  (369) 
1

>  <s_lp_Variant>  (369) 
107:0-1

>  <s_i_glide_gridfile>  (369) 
pfpi4k_grid

>  <i_i_glide_lignum>  (369) 
39

>  <i_i_glide_rotatable_bonds>  (369) 
7

>  <r_i_docking_score>  (369) 
-1.80078

>  <r_i_glide_ligand_efficiency>  (369) 
-0.0529641

>  <r_i_glide_ligand_efficiency_sa>  (369) 
-0.171583

>  <r_i_glide_ligand_efficiency_ln>  (369) 
-0.397843

>  <r_i_glide_gscore>  (369) 
-1.80078

>  <r_i_glide_lipo>  (369) 
-0.0797293

>  <r_i_glide_hbond>  (369) 
0

>  <r_i_glide_metal>  (369) 
-0

>  <r_i_glide_rewards>  (369) 
-0.438983

>  <r_i_glide_evdw>  (369) 
-29.9318

>  <r_i_glide_ecoul>  (369) 
-1.3957

>  <r_i_glide_erotb>  (369) 
0.449364

>  <r_i_glide_esite>  (369) 
-0.0254846

>  <r_i_glide_emodel>  (369) 
-30.6197

>  <r_i_glide_energy>  (369) 
-31.3275

>  <r_i_glide_einternal>  (369) 
5.41488

>  <r_i_glide_intrahb_reward>  (369) 
-0

>  <i_i_glide_confnum>  (369) 
2

>  <i_i_glide_posenum>  (369) 
2

>  <r_i_glide_eff_state_penalty>  (369) 
0

>  <ligand_id>  (369) 
107

>  <original_smiles>  (369) 
COC(=O)Nc1ccc2c(c1)N(C)C1C(C(=O)N3CCOCC3)CC(C(=O)OC)C=C(O2)N1C

>  <smiles>  (369) 
[H]C1=C2Oc3c([H])c([H])c(N([H])C(=O)OC([H])([H])[H])c([H])c3N(C([H])([H])[H])C([H])(N2C([H])([H])[H])C([H])(C(=O)N2C([H])([H])C([H])([H])OC([H])([H])C2([H])[H])C([H])([H])C1([H])C(=O)OC([H])([H])[H]

$$$$
107:0:2
     RDKit          3D

 64 67  0  0  1  0  0  0  0  0999 V2000
    0.8027    2.5344    2.5553 C   0  0  0  0  0  0  0  0  0  0  0  0
    1.5557    1.3497    2.7586 O   0  0  0  0  0  0  0  0  0  0  0  0
    0.9581    0.2915    3.3218 C   0  0  0  0  0  0  0  0  0  0  0  0
   -0.2246    0.2539    3.6514 O   0  0  0  0  0  0  0  0  0  0  0  0
    1.9134   -0.7074    3.4599 N   0  0  0  0  0  0  0  0  0  0  0  0
    1.7699   -2.0105    4.0286 C   0  0  0  0  0  0  0  0  0  0  0  0
    0.6162   -2.4457    4.7078 C   0  0  0  0  0  0  0  0  0  0  0  0
    0.5507   -3.7600    5.1962 C   0  0  0  0  0  0  0  0  0  0  0  0
    1.6008   -4.6791    4.9845 C   0  0  0  0  0  0  0  0  0  0  0  0
    2.7990   -4.2697    4.3007 C   0  0  0  0  0  0  0  0  0  0  0  0
    2.8628   -2.8964    3.9074 C   0  0  0  0  0  0  0  0  0  0  0  0
    3.9231   -5.1252    4.0199 N   0  0  0  0  0  0  0  0  0  0  0  0
    5.2124   -4.5121    3.7027 C   0  0  0  0  0  0  0  0  0  0  0  0
    3.8205   -6.5666    3.6932 C   0  0  2  0  0  0  0  0  0  0  0  0
    3.1982   -6.8294    2.2774 C   0  0  1  0  0  0  0  0  0  0  0  0
    4.2187   -6.5353    1.1347 C   0  0  0  0  0  0  0  0  0  0  0  0
    5.1236   -7.3689    0.9608 O   0  0  0  0  0  0  0  0  0  0  0  0
    4.1500   -5.4126    0.3914 N   0  0  0  0  0  0  0  0  0  0  0  0
    5.2874   -4.9332   -0.4266 C   0  0  0  0  0  0  0  0  0  0  0  0
    5.6107   -3.4539   -0.1179 C   0  0  0  0  0  0  0  0  0  0  0  0
    4.4400   -2.6693   -0.3116 O   0  0  0  0  0  0  0  0  0  0  0  0
    3.4063   -3.1047    0.5661 C   0  0  0  0  0  0  0  0  0  0  0  0
    2.9727   -4.5392    0.2259 C   0  0  0  0  0  0  0  0  0  0  0  0
    2.6216   -8.2806    2.1373 C   0  0  0  0  0  0  0  0  0  0  0  0
    1.1911   -8.4629    2.7364 C   0  0  1  0  0  0  0  0  0  0  0  0
    0.9504   -9.9108    3.1695 C   0  0  0  0  0  0  0  0  0  0  0  0
    0.2136  -10.6489    2.5252 O   0  0  0  0  0  0  0  0  0  0  0  0
    1.6451  -10.2566    4.2665 O   0  0  0  0  0  0  0  0  0  0  0  0
    1.5512  -11.5764    4.7650 C   0  0  0  0  0  0  0  0  0  0  0  0
    0.8398   -7.5175    3.8867 C   0  0  0  0  0  0  0  0  0  0  0  0
    1.7184   -6.9875    4.7434 C   0  0  0  0  0  0  0  0  0  0  0  0
    1.3699   -5.9236    5.5164 O   0  0  0  0  0  0  0  0  0  0  0  0
    3.0744   -7.2193    4.7524 N   0  0  0  0  0  0  0  0  0  0  0  0
    3.7464   -7.3664    6.0328 C   0  0  0  0  0  0  0  0  0  0  0  0
    1.4293    3.2878    2.0764 H   0  0  0  0  0  0  0  0  0  0  0  0
    0.4418    2.9351    3.5055 H   0  0  0  0  0  0  0  0  0  0  0  0
   -0.0605    2.3387    1.9171 H   0  0  0  0  0  0  0  0  0  0  0  0
    2.8060   -0.4639    3.0645 H   0  0  0  0  0  0  0  0  0  0  0  0
   -0.2094   -1.7942    4.9068 H   0  0  0  0  0  0  0  0  0  0  0  0
   -0.3162   -4.0776    5.7503 H   0  0  0  0  0  0  0  0  0  0  0  0
    3.7593   -2.4810    3.4721 H   0  0  0  0  0  0  0  0  0  0  0  0
    5.3850   -3.5746    4.2280 H   0  0  0  0  0  0  0  0  0  0  0  0
    5.2764   -4.3303    2.6336 H   0  0  0  0  0  0  0  0  0  0  0  0
    6.0420   -5.1796    3.9545 H   0  0  0  0  0  0  0  0  0  0  0  0
    4.8215   -7.0076    3.7125 H   0  0  0  0  0  0  0  0  0  0  0  0
    2.3412   -6.1894    2.1807 H   0  0  0  0  0  0  0  0  0  0  0  0
    6.2001   -5.5111   -0.2855 H   0  0  0  0  0  0  0  0  0  0  0  0
    5.0081   -5.0344   -1.4699 H   0  0  0  0  0  0  0  0  0  0  0  0
    6.0059   -3.3413    0.8954 H   0  0  0  0  0  0  0  0  0  0  0  0
    6.3924   -3.0699   -0.7782 H   0  0  0  0  0  0  0  0  0  0  0  0
    3.8025   -3.0904    1.5593 H   0  0  0  0  0  0  0  0  0  0  0  0
    2.5437   -2.4302    0.5377 H   0  0  0  0  0  0  0  0  0  0  0  0
    2.6137   -4.6252   -0.7993 H   0  0  0  0  0  0  0  0  0  0  0  0
    2.1440   -4.7611    0.8763 H   0  0  0  0  0  0  0  0  0  0  0  0
    2.5235   -8.5198    1.0759 H   0  0  0  0  0  0  0  0  0  0  0  0
    3.3220   -9.0165    2.5317 H   0  0  0  0  0  0  0  0  0  0  0  0
    0.4697   -8.2323    1.9501 H   0  0  0  0  0  0  0  0  0  0  0  0
    2.1614  -11.6745    5.6628 H   0  0  0  0  0  0  0  0  0  0  0  0
    1.9215  -12.2885    4.0288 H   0  0  0  0  0  0  0  0  0  0  0  0
    0.5231  -11.8374    5.0195 H   0  0  0  0  0  0  0  0  0  0  0  0
   -0.1918   -7.1945    3.9244 H   0  0  0  0  0  0  0  0  0  0  0  0
    3.1585   -8.0304    6.6739 H   0  0  0  0  0  0  0  0  0  0  0  0
    3.8374   -6.4028    6.5475 H   0  0  0  0  0  0  0  0  0  0  0  0
    4.7399   -7.8003    5.9156 H   0  0  0  0  0  0  0  0  0  0  0  0
  1  2  1  0
  1 35  1  0
  1 36  1  0
  1 37  1  0
  2  3  1  0
  3  4  2  0
  3  5  1  0
  5  6  1  0
  5 38  1  0
  6 11  2  0
  6  7  1  0
  7  8  2  0
  7 39  1  0
  8  9  1  0
  8 40  1  0
  9 32  1  0
  9 10  2  0
 10 11  1  0
 10 12  1  0
 11 41  1  0
 12 13  1  0
 12 14  1  0
 13 42  1  0
 13 43  1  0
 13 44  1  0
 14 33  1  0
 14 15  1  0
 14 45  1  6
 15 16  1  0
 15 24  1  0
 15 46  1  6
 16 17  2  0
 16 18  1  0
 18 23  1  0
 18 19  1  0
 19 20  1  0
 19 47  1  0
 19 48  1  0
 20 21  1  0
 20 49  1  0
 20 50  1  0
 21 22  1  0
 22 23  1  0
 22 51  1  0
 22 52  1  0
 23 53  1  0
 23 54  1  0
 24 25  1  0
 24 55  1  0
 24 56  1  0
 25 26  1  0
 25 30  1  0
 25 57  1  6
 26 27  2  0
 26 28  1  0
 28 29  1  0
 29 58  1  0
 29 59  1  0
 29 60  1  0
 30 31  2  0
 30 61  1  0
 31 32  1  0
 31 33  1  0
 33 34  1  0
 34 62  1  0
 34 63  1  0
 34 64  1  0
M  END
>  <i_m_ct_stereo_status>  (370) 
1

>  <s_m_source_file>  (370) 
/var/tmp/pbs.5076255.sched01/tmpay8aiv4m/132fzfu5vr2.sdf

>  <i_m_source_file_index>  (370) 
39

>  <i_lp_mmshare_version>  (370) 
48012

>  <i_f3d_flags>  (370) 
0

>  <s_epik_input>  (370) 
W0NIM11PQyg9TylbTkhdYyhbY0hdW2NIXTEpW2NIXWMoYzEyKU4oW0NIM10pW0NAQEhdM1tDQEhdKFtDSDJdW0NAQEhdKEMoPU8pT1tDSDNdKVtDSF09QyhPMilOM1tDSDNdKUMoPU8pTjRbQ0gyXVtDSDJdT1tDSDJdW0NIMl00

>  <s_epik_cmdline>  (370) 
J2VwaWtfcHl0aG9uJywgJy1waHQnLCAnMi4wJywgJy1waCcsICc3LjAnLCAnLXRuJywgJzgnLCAnLW1hJywgJzIwMCcsICctaW1hZScsICc8aW5maWxlLm1hZT4nLCAnLW9tYWUnLCAnPG91dGZpbGUubWFlPic=

>  <r_lp_tautomer_probability>  (370) 
1

>  <r_epik_Ionization_Penalty>  (370) 
1.21319e-06

>  <r_epik_Ionization_Penalty_Charging>  (370) 
2.73975e-10

>  <r_epik_Ionization_Penalty_Neutral>  (370) 
1.21292e-06

>  <r_epik_State_Penalty>  (370) 
-0

>  <r_epik_Charging_Adjusted_Penalty>  (370) 
2.73975e-10

>  <i_epik_Tot_Q>  (370) 
0

>  <i_epik_Tot_abs_Q>  (370) 
0

>  <s_epik_Chemistry_Notes>  (370) 
This compound has an ester and may undergo hydrolysis at high or low pH. This compound has an imine and may undergo hydrolysis. This compound contains an acetal/aminal-like group ( X-CH(R)-Y where X, Y are N, S, or O) that may be acid/base labile, releasing an aldehyde.

>  <s_lp_Force_Field>  (370) 
OPLS3e

>  <r_lp_Energy>  (370) 
67.6646

>  <b_lp_Chiralities_Consistent>  (370) 
1

>  <s_lp_Variant>  (370) 
107:0-1

>  <s_i_glide_gridfile>  (370) 
pfpi4k_grid

>  <i_i_glide_lignum>  (370) 
39

>  <i_i_glide_rotatable_bonds>  (370) 
7

>  <r_i_docking_score>  (370) 
-1.70757

>  <r_i_glide_ligand_efficiency>  (370) 
-0.0502227

>  <r_i_glide_ligand_efficiency_sa>  (370) 
-0.162702

>  <r_i_glide_ligand_efficiency_ln>  (370) 
-0.37725

>  <r_i_glide_gscore>  (370) 
-1.70757

>  <r_i_glide_lipo>  (370) 
-0.10284

>  <r_i_glide_hbond>  (370) 
0

>  <r_i_glide_metal>  (370) 
-0

>  <r_i_glide_rewards>  (370) 
-0.443387

>  <r_i_glide_evdw>  (370) 
-29.4909

>  <r_i_glide_ecoul>  (370) 
-0.786664

>  <r_i_glide_erotb>  (370) 
0.449364

>  <r_i_glide_esite>  (370) 
-0.0181615

>  <r_i_glide_emodel>  (370) 
-31.6196

>  <r_i_glide_energy>  (370) 
-30.2776

>  <r_i_glide_einternal>  (370) 
1.55622

>  <r_i_glide_intrahb_reward>  (370) 
-0

>  <i_i_glide_confnum>  (370) 
2

>  <i_i_glide_posenum>  (370) 
10

>  <r_i_glide_eff_state_penalty>  (370) 
0

>  <ligand_id>  (370) 
107

>  <original_smiles>  (370) 
COC(=O)Nc1ccc2c(c1)N(C)C1C(C(=O)N3CCOCC3)CC(C(=O)OC)C=C(O2)N1C

>  <smiles>  (370) 
[H]C1=C2Oc3c([H])c([H])c(N([H])C(=O)OC([H])([H])[H])c([H])c3N(C([H])([H])[H])C([H])(N2C([H])([H])[H])C([H])(C(=O)N2C([H])([H])C([H])([H])OC([H])([H])C2([H])[H])C([H])([H])C1([H])C(=O)OC([H])([H])[H]

$$$$
108:0:0
     RDKit          3D

 69 73  0  0  1  0  0  0  0  0999 V2000
    7.9023   -4.7973    1.3834 C   0  0  0  0  0  0  0  0  0  0  0  0
    6.5879   -4.5253    1.2647 C   0  0  0  0  0  0  0  0  0  0  0  0
    6.1085   -3.6549    0.1092 C   0  0  0  0  0  0  0  0  0  0  0  0
    4.5894   -3.3872   -0.0284 C   0  0  2  0  0  0  0  0  0  0  0  0
    4.4298   -2.4772   -1.2255 C   0  0  0  0  0  0  0  0  0  0  0  0
    4.0101   -1.2590   -0.9206 C   0  0  0  0  0  0  0  0  0  0  0  0
    3.8456   -1.0753    0.5507 C   0  0  1  0  0  0  0  0  0  0  0  0
    2.6176   -0.4558    0.8755 O   0  0  0  0  0  0  0  0  0  0  0  0
    3.9619   -2.5207    1.1332 C   0  0  2  0  0  0  0  0  0  0  0  0
    4.7082   -2.5476    2.4908 C   0  0  1  0  0  0  0  0  0  0  0  0
    4.0754   -1.5851    3.5211 C   0  0  0  0  0  0  0  0  0  0  0  0
    4.8860   -3.9519    3.1237 C   0  0  1  0  0  0  0  0  0  0  0  0
    3.6962   -4.3924    3.7587 O   0  0  0  0  0  0  0  0  0  0  0  0
    5.5612   -5.0608    2.2622 C   0  0  1  0  0  0  0  0  0  0  0  0
    4.6518   -6.1432    1.6411 C   0  0  1  0  0  0  0  0  0  0  0  0
    4.1424   -6.9686    2.7042 O   0  0  0  0  0  0  0  0  0  0  0  0
    4.5429   -8.3382    2.7233 C   0  0  2  0  0  0  0  0  0  0  0  0
    3.7696   -9.0960    1.5919 C   0  0  0  0  0  0  0  0  0  0  0  0
    2.2279   -9.3262    1.7467 C   0  0  0  0  0  0  0  0  0  0  0  0
    1.5872  -10.1667    2.9439 C   0  0  2  0  0  0  0  0  0  0  0  0
    0.7023   -9.2222    3.8431 C   0  0  0  0  0  0  0  0  0  0  0  0
    1.6472   -8.8109    5.0368 C   0  0  0  0  0  0  0  0  0  0  0  0
    2.9654   -9.4825    4.5832 C   0  0  1  0  0  0  0  0  0  0  0  0
    4.3773   -8.8853    4.2090 C   0  0  0  0  0  0  0  0  0  0  0  0
    2.5686  -10.7341    3.8925 N   0  0  0  0  0  0  0  0  0  0  0  0
    3.6362  -11.5738    3.3207 C   0  0  0  0  0  0  0  0  0  0  0  0
    1.8695  -11.6543    4.8250 C   0  0  0  0  0  0  0  0  0  0  0  0
    3.4573   -5.6048    0.8374 C   0  0  0  0  0  0  0  0  0  0  0  0
    3.8054   -4.6801   -0.3354 C   0  0  0  0  0  0  0  0  0  0  0  0
    8.2840   -5.3975    2.1948 H   0  0  0  0  0  0  0  0  0  0  0  0
    8.6154   -4.3996    0.6815 H   0  0  0  0  0  0  0  0  0  0  0  0
    6.6390   -2.7030    0.1746 H   0  0  0  0  0  0  0  0  0  0  0  0
    6.4724   -4.1203   -0.8088 H   0  0  0  0  0  0  0  0  0  0  0  0
    4.6136   -2.8158   -2.2362 H   0  0  0  0  0  0  0  0  0  0  0  0
    3.8311   -0.4749   -1.6396 H   0  0  0  0  0  0  0  0  0  0  0  0
    4.6638   -0.4388    0.8860 H   0  0  0  0  0  0  0  0  0  0  0  0
    1.9495   -0.6578    0.2189 H   0  0  0  0  0  0  0  0  0  0  0  0
    2.9441   -2.8749    1.2859 H   0  0  0  0  0  0  0  0  0  0  0  0
    5.7112   -2.1587    2.3202 H   0  0  0  0  0  0  0  0  0  0  0  0
    3.0145   -1.7913    3.6682 H   0  0  0  0  0  0  0  0  0  0  0  0
    4.1568   -0.5463    3.2002 H   0  0  0  0  0  0  0  0  0  0  0  0
    4.5719   -1.6521    4.4893 H   0  0  0  0  0  0  0  0  0  0  0  0
    5.5731   -3.7961    3.9562 H   0  0  0  0  0  0  0  0  0  0  0  0
    3.4222   -3.7411    4.3676 H   0  0  0  0  0  0  0  0  0  0  0  0
    6.1556   -5.6339    2.9765 H   0  0  0  0  0  0  0  0  0  0  0  0
    5.2764   -6.7307    0.9638 H   0  0  0  0  0  0  0  0  0  0  0  0
    5.6170   -8.3564    2.5111 H   0  0  0  0  0  0  0  0  0  0  0  0
    3.8759   -8.5211    0.6754 H   0  0  0  0  0  0  0  0  0  0  0  0
    4.2729  -10.0064    1.2913 H   0  0  0  0  0  0  0  0  0  0  0  0
    1.7517   -8.3437    1.6955 H   0  0  0  0  0  0  0  0  0  0  0  0
    1.9214   -9.8207    0.8326 H   0  0  0  0  0  0  0  0  0  0  0  0
    0.9584  -10.9383    2.4937 H   0  0  0  0  0  0  0  0  0  0  0  0
    0.3258   -8.3490    3.3130 H   0  0  0  0  0  0  0  0  0  0  0  0
   -0.1716   -9.7611    4.2211 H   0  0  0  0  0  0  0  0  0  0  0  0
    1.6827   -7.7315    5.2009 H   0  0  0  0  0  0  0  0  0  0  0  0
    1.2825   -9.2536    5.9654 H   0  0  0  0  0  0  0  0  0  0  0  0
    2.8125   -8.6197    3.9551 H   0  0  0  0  0  0  0  0  0  0  0  0
    5.1490   -9.6285    4.4200 H   0  0  0  0  0  0  0  0  0  0  0  0
    4.6191   -8.0684    4.8921 H   0  0  0  0  0  0  0  0  0  0  0  0
    4.0607  -12.2450    4.0791 H   0  0  0  0  0  0  0  0  0  0  0  0
    4.5315  -11.0993    2.9277 H   0  0  0  0  0  0  0  0  0  0  0  0
    3.2402  -12.2360    2.5398 H   0  0  0  0  0  0  0  0  0  0  0  0
    2.5233  -11.9694    5.6537 H   0  0  0  0  0  0  0  0  0  0  0  0
    1.5610  -12.5765    4.3137 H   0  0  0  0  0  0  0  0  0  0  0  0
    0.9413  -11.3037    5.2956 H   0  0  0  0  0  0  0  0  0  0  0  0
    2.9095   -6.4500    0.4263 H   0  0  0  0  0  0  0  0  0  0  0  0
    2.7456   -5.1176    1.4996 H   0  0  0  0  0  0  0  0  0  0  0  0
    2.8578   -4.4042   -0.8018 H   0  0  0  0  0  0  0  0  0  0  0  0
    4.3483   -5.2418   -1.0979 H   0  0  0  0  0  0  0  0  0  0  0  0
  1  2  2  0
  1 30  1  0
  1 31  1  0
  2 14  1  0
  2  3  1  0
  3  4  1  0
  3 32  1  0
  3 33  1  0
  4  9  1  0
  4 29  1  6
  4  5  1  0
  5  6  2  0
  5 34  1  0
  6  7  1  0
  6 35  1  0
  7  8  1  0
  7  9  1  0
  7 36  1  1
  8 37  1  0
  9 10  1  0
  9 38  1  1
 10 11  1  0
 10 12  1  0
 10 39  1  6
 11 40  1  0
 11 41  1  0
 11 42  1  0
 12 13  1  0
 12 14  1  0
 12 43  1  1
 13 44  1  0
 14 15  1  0
 14 45  1  1
 15 16  1  0
 15 28  1  0
 15 46  1  6
 16 17  1  0
 17 24  1  0
 17 18  1  0
 17 47  1  6
 18 19  1  0
 18 48  1  0
 18 49  1  0
 19 20  1  0
 19 50  1  0
 19 51  1  0
 20 25  1  0
 20 21  1  0
 20 52  1  6
 21 22  1  0
 21 53  1  0
 21 54  1  0
 22 23  1  0
 22 55  1  0
 22 56  1  0
 23 24  1  0
 23 25  1  0
 23 57  1  1
 24 58  1  0
 24 59  1  0
 25 26  1  0
 25 27  1  0
 26 60  1  0
 26 61  1  0
 26 62  1  0
 27 63  1  0
 27 64  1  0
 27 65  1  0
 28 29  1  0
 28 66  1  0
 28 67  1  0
 29 68  1  0
 29 69  1  0
M  CHG  1  25   1
M  END
>  <i_m_ct_stereo_status>  (371) 
1

>  <s_m_source_file>  (371) 
/var/tmp/pbs.5076255.sched01/tmpay8aiv4m/132fzfu5vr2.sdf

>  <i_m_source_file_index>  (371) 
40

>  <i_lp_mmshare_version>  (371) 
48012

>  <i_f3d_flags>  (371) 
0

>  <s_epik_input>  (371) 
W0NIXTE9W0NIXVtDQEBIXShbT0hdKVtDQEBIXShbQ0BAXTEyMylbQ0BASF0oW0NIM10pW0NAQEhdKFtPSF0pW0NASF0oQyg9W0NIMl0pW0NIMl0yKVtDQEhdKFtDSDJdW0NIMl0zKU9bQ0BIXShbQ0gyXVtDSDJdW0NASF00NSlbQ0gyXVtDQEhdKFtDSDJdW0NIMl00KVtOK101KFtDSDNdKVtDSDNd

>  <s_epik_cmdline>  (371) 
J2VwaWtfcHl0aG9uJywgJy1waHQnLCAnMi4wJywgJy1waCcsICc3LjAnLCAnLXRuJywgJzgnLCAnLW1hJywgJzIwMCcsICctaW1hZScsICc8aW5maWxlLm1hZT4nLCAnLW9tYWUnLCAnPG91dGZpbGUubWFlPic=

>  <r_lp_tautomer_probability>  (371) 
1

>  <r_epik_Ionization_Penalty>  (371) 
4.16601e-07

>  <r_epik_Ionization_Penalty_Charging>  (371) 
0

>  <r_epik_Ionization_Penalty_Neutral>  (371) 
4.16601e-07

>  <r_epik_State_Penalty>  (371) 
-0

>  <r_epik_Charging_Adjusted_Penalty>  (371) 
0

>  <i_epik_Tot_Q>  (371) 
1

>  <i_epik_Tot_abs_Q>  (371) 
1

>  <s_lp_Force_Field>  (371) 
OPLS3e

>  <r_lp_Energy>  (371) 
122.09

>  <b_lp_Chiralities_Consistent>  (371) 
1

>  <s_lp_Variant>  (371) 
108:0-1

>  <s_i_glide_gridfile>  (371) 
pfpi4k_grid

>  <i_i_glide_lignum>  (371) 
40

>  <i_i_glide_rotatable_bonds>  (371) 
4

>  <r_i_docking_score>  (371) 
-3.51674

>  <r_i_glide_ligand_efficiency>  (371) 
-0.121267

>  <r_i_glide_ligand_efficiency_sa>  (371) 
-0.37257

>  <r_i_glide_ligand_efficiency_ln>  (371) 
-0.805244

>  <r_i_glide_gscore>  (371) 
-3.51674

>  <r_i_glide_lipo>  (371) 
-0.644233

>  <r_i_glide_hbond>  (371) 
-0.16

>  <r_i_glide_metal>  (371) 
-0

>  <r_i_glide_rewards>  (371) 
-0.664159

>  <r_i_glide_evdw>  (371) 
-20.403

>  <r_i_glide_ecoul>  (371) 
-8.40767

>  <r_i_glide_erotb>  (371) 
0.242169

>  <r_i_glide_esite>  (371) 
-0.00921707

>  <r_i_glide_emodel>  (371) 
-36.0589

>  <r_i_glide_energy>  (371) 
-28.8107

>  <r_i_glide_einternal>  (371) 
2.96754

>  <r_i_glide_intrahb_reward>  (371) 
-0

>  <i_i_glide_confnum>  (371) 
2

>  <i_i_glide_posenum>  (371) 
21

>  <r_i_glide_eff_state_penalty>  (371) 
0

>  <ligand_id>  (371) 
108

>  <original_smiles>  (371) 
C=C1CC23C=CC(O)C2C(C)C(O)C1C(OC1CCC2CCC(C1)[N+]2(C)C)CC3

>  <smiles>  (371) 
[H]OC1([H])C([H])=C([H])C23C([H])([H])C(=C([H])[H])C([H])(C([H])(OC4([H])C([H])([H])C([H])([H])C5([H])C([H])([H])C([H])([H])C([H])(C4([H])[H])[N+]5(C([H])([H])[H])C([H])([H])[H])C([H])([H])C2([H])[H])C([H])(O[H])C([H])(C([H])([H])[H])C13[H]

$$$$
108:0:1
     RDKit          3D

 69 73  0  0  1  0  0  0  0  0999 V2000
    7.6152   -4.9765    1.6661 C   0  0  0  0  0  0  0  0  0  0  0  0
    6.3449   -4.6209    1.4498 C   0  0  0  0  0  0  0  0  0  0  0  0
    6.0136   -3.6939    0.2844 C   0  0  0  0  0  0  0  0  0  0  0  0
    4.5318   -3.3178    0.0451 C   0  0  2  0  0  0  0  0  0  0  0  0
    4.5113   -2.3762   -1.1425 C   0  0  0  0  0  0  0  0  0  0  0  0
    4.1391   -1.1483   -0.8378 C   0  0  0  0  0  0  0  0  0  0  0  0
    3.8572   -0.9899    0.6336 C   0  0  1  0  0  0  0  0  0  0  0  0
    2.6128   -0.3516    0.8786 O   0  0  0  0  0  0  0  0  0  0  0  0
    3.8641   -2.4491    1.1674 C   0  0  2  0  0  0  0  0  0  0  0  0
    4.4952   -2.5565    2.5872 C   0  0  1  0  0  0  0  0  0  0  0  0
    3.8429   -1.5788    3.5868 C   0  0  0  0  0  0  0  0  0  0  0  0
    4.5414   -3.9863    3.1903 C   0  0  1  0  0  0  0  0  0  0  0  0
    3.2884   -4.3719    3.7232 O   0  0  0  0  0  0  0  0  0  0  0  0
    5.2082   -5.1194    2.3489 C   0  0  1  0  0  0  0  0  0  0  0  0
    4.2840   -6.1252    1.6214 C   0  0  1  0  0  0  0  0  0  0  0  0
    3.7107   -6.9732    2.6376 O   0  0  0  0  0  0  0  0  0  0  0  0
    3.4919   -8.3607    2.3540 C   0  0  2  0  0  0  0  0  0  0  0  0
    2.0663   -8.5683    1.6938 C   0  0  0  0  0  0  0  0  0  0  0  0
    0.7775   -8.3272    2.5419 C   0  0  0  0  0  0  0  0  0  0  0  0
    0.4239   -9.1756    3.8123 C   0  0  2  0  0  0  0  0  0  0  0  0
    0.4566   -8.2800    5.1092 C   0  0  0  0  0  0  0  0  0  0  0  0
    1.8809   -8.4829    5.7259 C   0  0  0  0  0  0  0  0  0  0  0  0
    2.5503   -9.3761    4.6484 C   0  0  1  0  0  0  0  0  0  0  0  0
    3.7657   -9.1697    3.6927 C   0  0  0  0  0  0  0  0  0  0  0  0
    1.4307  -10.2386    4.1319 N   0  0  0  0  0  0  0  0  0  0  0  0
    1.7568  -11.2146    3.0399 C   0  0  0  0  0  0  0  0  0  0  0  0
    0.8831  -11.1311    5.2112 C   0  0  0  0  0  0  0  0  0  0  0  0
    3.2043   -5.4514    0.7430 C   0  0  0  0  0  0  0  0  0  0  0  0
    3.7016   -4.5337   -0.3655 C   0  0  0  0  0  0  0  0  0  0  0  0
    7.9068   -5.6157    2.4899 H   0  0  0  0  0  0  0  0  0  0  0  0
    8.4142   -4.6056    1.0309 H   0  0  0  0  0  0  0  0  0  0  0  0
    6.5931   -2.7792    0.4108 H   0  0  0  0  0  0  0  0  0  0  0  0
    6.4086   -4.1654   -0.6194 H   0  0  0  0  0  0  0  0  0  0  0  0
    4.7437   -2.7118   -2.1451 H   0  0  0  0  0  0  0  0  0  0  0  0
    4.0536   -0.3314   -1.5458 H   0  0  0  0  0  0  0  0  0  0  0  0
    4.6854   -0.4095    1.0379 H   0  0  0  0  0  0  0  0  0  0  0  0
    1.9662   -0.6565    0.2602 H   0  0  0  0  0  0  0  0  0  0  0  0
    2.8166   -2.7526    1.2459 H   0  0  0  0  0  0  0  0  0  0  0  0
    5.5310   -2.2245    2.4973 H   0  0  0  0  0  0  0  0  0  0  0  0
    2.7635   -1.7239    3.6517 H   0  0  0  0  0  0  0  0  0  0  0  0
    4.0052   -0.5408    3.2993 H   0  0  0  0  0  0  0  0  0  0  0  0
    4.2601   -1.6949    4.5869 H   0  0  0  0  0  0  0  0  0  0  0  0
    5.1762   -3.8858    4.0723 H   0  0  0  0  0  0  0  0  0  0  0  0
    3.0037   -3.7015    4.3348 H   0  0  0  0  0  0  0  0  0  0  0  0
    5.7104   -5.7379    3.0912 H   0  0  0  0  0  0  0  0  0  0  0  0
    4.9329   -6.7260    0.9803 H   0  0  0  0  0  0  0  0  0  0  0  0
    4.2546   -8.6776    1.6501 H   0  0  0  0  0  0  0  0  0  0  0  0
    1.9538   -7.8880    0.8802 H   0  0  0  0  0  0  0  0  0  0  0  0
    2.0130   -9.5018    1.1323 H   0  0  0  0  0  0  0  0  0  0  0  0
    0.7796   -7.2668    2.7982 H   0  0  0  0  0  0  0  0  0  0  0  0
   -0.0542   -8.4235    1.8453 H   0  0  0  0  0  0  0  0  0  0  0  0
   -0.5635   -9.6058    3.6790 H   0  0  0  0  0  0  0  0  0  0  0  0
    0.2618   -7.2247    4.8948 H   0  0  0  0  0  0  0  0  0  0  0  0
   -0.3121   -8.6012    5.8156 H   0  0  0  0  0  0  0  0  0  0  0  0
    2.4072   -7.5397    5.9428 H   0  0  0  0  0  0  0  0  0  0  0  0
    1.8134   -9.0155    6.6797 H   0  0  0  0  0  0  0  0  0  0  0  0
    2.4674   -8.3863    4.2379 H   0  0  0  0  0  0  0  0  0  0  0  0
    4.2066  -10.1364    3.4437 H   0  0  0  0  0  0  0  0  0  0  0  0
    4.5662   -8.6616    4.2331 H   0  0  0  0  0  0  0  0  0  0  0  0
    2.1557  -12.1255    3.4507 H   0  0  0  0  0  0  0  0  0  0  0  0
    2.5280  -10.9567    2.3432 H   0  0  0  0  0  0  0  0  0  0  0  0
    0.8559  -11.4759    2.5100 H   0  0  0  0  0  0  0  0  0  0  0  0
    1.6668  -11.7828    5.5578 H   0  0  0  0  0  0  0  0  0  0  0  0
    0.0995  -11.7480    4.8079 H   0  0  0  0  0  0  0  0  0  0  0  0
    0.4636  -10.6409    6.0748 H   0  0  0  0  0  0  0  0  0  0  0  0
    2.6743   -6.1751    0.1445 H   0  0  0  0  0  0  0  0  0  0  0  0
    2.4614   -4.9557    1.3689 H   0  0  0  0  0  0  0  0  0  0  0  0
    2.8106   -4.1977   -0.8955 H   0  0  0  0  0  0  0  0  0  0  0  0
    4.2623   -5.1188   -1.0900 H   0  0  0  0  0  0  0  0  0  0  0  0
  1  2  2  0
  1 30  1  0
  1 31  1  0
  2 14  1  0
  2  3  1  0
  3  4  1  0
  3 32  1  0
  3 33  1  0
  4  9  1  0
  4 29  1  6
  4  5  1  0
  5  6  2  0
  5 34  1  0
  6  7  1  0
  6 35  1  0
  7  8  1  0
  7  9  1  0
  7 36  1  1
  8 37  1  0
  9 10  1  0
  9 38  1  1
 10 11  1  0
 10 12  1  0
 10 39  1  6
 11 40  1  0
 11 41  1  0
 11 42  1  0
 12 13  1  0
 12 14  1  0
 12 43  1  1
 13 44  1  0
 14 15  1  0
 14 45  1  1
 15 16  1  0
 15 28  1  0
 15 46  1  6
 16 17  1  0
 17 24  1  0
 17 18  1  0
 17 47  1  6
 18 19  1  0
 18 48  1  0
 18 49  1  0
 19 20  1  0
 19 50  1  0
 19 51  1  0
 20 25  1  0
 20 21  1  0
 20 52  1  6
 21 22  1  0
 21 53  1  0
 21 54  1  0
 22 23  1  0
 22 55  1  0
 22 56  1  0
 23 24  1  0
 23 25  1  0
 23 57  1  1
 24 58  1  0
 24 59  1  0
 25 26  1  0
 25 27  1  0
 26 60  1  0
 26 61  1  0
 26 62  1  0
 27 63  1  0
 27 64  1  0
 27 65  1  0
 28 29  1  0
 28 66  1  0
 28 67  1  0
 29 68  1  0
 29 69  1  0
M  CHG  1  25   1
M  END
>  <i_m_ct_stereo_status>  (372) 
1

>  <s_m_source_file>  (372) 
/var/tmp/pbs.5076255.sched01/tmpay8aiv4m/132fzfu5vr2.sdf

>  <i_m_source_file_index>  (372) 
40

>  <i_lp_mmshare_version>  (372) 
48012

>  <i_f3d_flags>  (372) 
0

>  <s_epik_input>  (372) 
W0NIXTE9W0NIXVtDQEBIXShbT0hdKVtDQEBIXShbQ0BAXTEyMylbQ0BASF0oW0NIM10pW0NAQEhdKFtPSF0pW0NASF0oQyg9W0NIMl0pW0NIMl0yKVtDQEhdKFtDSDJdW0NIMl0zKU9bQ0BIXShbQ0gyXVtDSDJdW0NASF00NSlbQ0gyXVtDQEhdKFtDSDJdW0NIMl00KVtOK101KFtDSDNdKVtDSDNd

>  <s_epik_cmdline>  (372) 
J2VwaWtfcHl0aG9uJywgJy1waHQnLCAnMi4wJywgJy1waCcsICc3LjAnLCAnLXRuJywgJzgnLCAnLW1hJywgJzIwMCcsICctaW1hZScsICc8aW5maWxlLm1hZT4nLCAnLW9tYWUnLCAnPG91dGZpbGUubWFlPic=

>  <r_lp_tautomer_probability>  (372) 
1

>  <r_epik_Ionization_Penalty>  (372) 
4.16601e-07

>  <r_epik_Ionization_Penalty_Charging>  (372) 
0

>  <r_epik_Ionization_Penalty_Neutral>  (372) 
4.16601e-07

>  <r_epik_State_Penalty>  (372) 
-0

>  <r_epik_Charging_Adjusted_Penalty>  (372) 
0

>  <i_epik_Tot_Q>  (372) 
1

>  <i_epik_Tot_abs_Q>  (372) 
1

>  <s_lp_Force_Field>  (372) 
OPLS3e

>  <r_lp_Energy>  (372) 
122.09

>  <b_lp_Chiralities_Consistent>  (372) 
1

>  <s_lp_Variant>  (372) 
108:0-1

>  <s_i_glide_gridfile>  (372) 
pfpi4k_grid

>  <i_i_glide_lignum>  (372) 
40

>  <i_i_glide_rotatable_bonds>  (372) 
4

>  <r_i_docking_score>  (372) 
-3.27027

>  <r_i_glide_ligand_efficiency>  (372) 
-0.112768

>  <r_i_glide_ligand_efficiency_sa>  (372) 
-0.346459

>  <r_i_glide_ligand_efficiency_ln>  (372) 
-0.74881

>  <r_i_glide_gscore>  (372) 
-3.27027

>  <r_i_glide_lipo>  (372) 
-0.483405

>  <r_i_glide_hbond>  (372) 
-0.16

>  <r_i_glide_metal>  (372) 
-0

>  <r_i_glide_rewards>  (372) 
-0.664159

>  <r_i_glide_evdw>  (372) 
-20.3195

>  <r_i_glide_ecoul>  (372) 
-7.83443

>  <r_i_glide_erotb>  (372) 
0.242169

>  <r_i_glide_esite>  (372) 
-0.0137393

>  <r_i_glide_emodel>  (372) 
-34.8617

>  <r_i_glide_energy>  (372) 
-28.1539

>  <r_i_glide_einternal>  (372) 
2.21281

>  <r_i_glide_intrahb_reward>  (372) 
-0

>  <i_i_glide_confnum>  (372) 
5

>  <i_i_glide_posenum>  (372) 
17

>  <r_i_glide_eff_state_penalty>  (372) 
0

>  <ligand_id>  (372) 
108

>  <original_smiles>  (372) 
C=C1CC23C=CC(O)C2C(C)C(O)C1C(OC1CCC2CCC(C1)[N+]2(C)C)CC3

>  <smiles>  (372) 
[H]OC1([H])C([H])=C([H])C23C([H])([H])C(=C([H])[H])C([H])(C([H])(OC4([H])C([H])([H])C([H])([H])C5([H])C([H])([H])C([H])([H])C([H])(C4([H])[H])[N+]5(C([H])([H])[H])C([H])([H])[H])C([H])([H])C2([H])[H])C([H])(O[H])C([H])(C([H])([H])[H])C13[H]

$$$$
108:0:2
     RDKit          3D

 69 73  0  0  1  0  0  0  0  0999 V2000
    7.5977   -5.0624    1.6743 C   0  0  0  0  0  0  0  0  0  0  0  0
    6.3322   -4.6763    1.4571 C   0  0  0  0  0  0  0  0  0  0  0  0
    6.0347   -3.7331    0.2930 C   0  0  0  0  0  0  0  0  0  0  0  0
    4.5635   -3.3179    0.0454 C   0  0  2  0  0  0  0  0  0  0  0  0
    4.5761   -2.3677   -1.1334 C   0  0  0  0  0  0  0  0  0  0  0  0
    4.2316   -1.1249   -0.8167 C   0  0  0  0  0  0  0  0  0  0  0  0
    3.9509   -0.9817    0.6469 C   0  0  1  0  0  0  0  0  0  0  0  0
    2.7355   -0.2892    0.8762 O   0  0  0  0  0  0  0  0  0  0  0  0
    3.9116   -2.4438    1.1765 C   0  0  2  0  0  0  0  0  0  0  0  0
    4.5290   -2.5816    2.5967 C   0  0  1  0  0  0  0  0  0  0  0  0
    3.8989   -1.5942    3.6040 C   0  0  0  0  0  0  0  0  0  0  0  0
    4.5366   -4.0163    3.1902 C   0  0  1  0  0  0  0  0  0  0  0  0
    3.2736   -4.3707    3.7290 O   0  0  0  0  0  0  0  0  0  0  0  0
    5.1827   -5.1560    2.3432 C   0  0  1  0  0  0  0  0  0  0  0  0
    4.2363   -6.1351    1.5958 C   0  0  1  0  0  0  0  0  0  0  0  0
    3.6269   -6.9646    2.6032 O   0  0  0  0  0  0  0  0  0  0  0  0
    3.3981   -8.3470    2.3025 C   0  0  2  0  0  0  0  0  0  0  0  0
    1.9583   -8.5193    1.6789 C   0  0  0  0  0  0  0  0  0  0  0  0
    0.6882   -8.2900    2.5631 C   0  0  0  0  0  0  0  0  0  0  0  0
    0.3748   -9.1632    3.8486 C   0  0  2  0  0  0  0  0  0  0  0  0
    0.4434   -8.2746    5.1507 C   0  0  0  0  0  0  0  0  0  0  0  0
    1.8900   -8.4933    5.7196 C   0  0  0  0  0  0  0  0  0  0  0  0
    2.5143   -9.3909    4.6183 C   0  0  1  0  0  0  0  0  0  0  0  0
    3.7109   -9.1789    3.6287 C   0  0  0  0  0  0  0  0  0  0  0  0
    1.3737  -10.2388    4.1315 N   0  0  0  0  0  0  0  0  0  0  0  0
    1.6604  -11.2034    3.0198 C   0  0  0  0  0  0  0  0  0  0  0  0
    0.8559  -11.1339    5.2143 C   0  0  0  0  0  0  0  0  0  0  0  0
    3.1739   -5.4423    0.7184 C   0  0  0  0  0  0  0  0  0  0  0  0
    3.7028   -4.5210   -0.3793 C   0  0  0  0  0  0  0  0  0  0  0  0
    7.8630   -5.7231    2.4930 H   0  0  0  0  0  0  0  0  0  0  0  0
    8.4060   -4.7134    1.0509 H   0  0  0  0  0  0  0  0  0  0  0  0
    6.6391   -2.8366    0.4389 H   0  0  0  0  0  0  0  0  0  0  0  0
    6.4282   -4.2074   -0.6089 H   0  0  0  0  0  0  0  0  0  0  0  0
    4.8167   -2.6987   -2.1333 H   0  0  0  0  0  0  0  0  0  0  0  0
    4.1849   -0.2987   -1.5090 H   0  0  0  0  0  0  0  0  0  0  0  0
    4.7875   -0.4258    1.0719 H   0  0  0  0  0  0  0  0  0  0  0  0
    2.0536   -0.6260    0.2901 H   0  0  0  0  0  0  0  0  0  0  0  0
    2.8580   -2.7192    1.2425 H   0  0  0  0  0  0  0  0  0  0  0  0
    5.5739   -2.2778    2.5203 H   0  0  0  0  0  0  0  0  0  0  0  0
    2.8172   -1.7217    3.6609 H   0  0  0  0  0  0  0  0  0  0  0  0
    4.0920   -0.5585    3.3292 H   0  0  0  0  0  0  0  0  0  0  0  0
    4.3037   -1.7378    4.6063 H   0  0  0  0  0  0  0  0  0  0  0  0
    5.1689   -3.9388    4.0759 H   0  0  0  0  0  0  0  0  0  0  0  0
    3.3821   -5.1544    4.2462 H   0  0  0  0  0  0  0  0  0  0  0  0
    5.6653   -5.8020    3.0796 H   0  0  0  0  0  0  0  0  0  0  0  0
    4.8709   -6.7485    0.9540 H   0  0  0  0  0  0  0  0  0  0  0  0
    4.1341   -8.6738    1.5703 H   0  0  0  0  0  0  0  0  0  0  0  0
    1.8423   -7.8134    0.8780 H   0  0  0  0  0  0  0  0  0  0  0  0
    1.8763   -9.4478    1.1147 H   0  0  0  0  0  0  0  0  0  0  0  0
    0.6984   -7.2352    2.8390 H   0  0  0  0  0  0  0  0  0  0  0  0
   -0.1661   -8.3884    1.8957 H   0  0  0  0  0  0  0  0  0  0  0  0
   -0.6244   -9.5842    3.7356 H   0  0  0  0  0  0  0  0  0  0  0  0
    0.2457   -7.2183    4.9559 H   0  0  0  0  0  0  0  0  0  0  0  0
   -0.3046   -8.5997    5.8756 H   0  0  0  0  0  0  0  0  0  0  0  0
    2.4251   -7.5573    5.9379 H   0  0  0  0  0  0  0  0  0  0  0  0
    1.8450   -9.0320    6.6697 H   0  0  0  0  0  0  0  0  0  0  0  0
    2.4343   -8.3941    4.2209 H   0  0  0  0  0  0  0  0  0  0  0  0
    4.1308  -10.1457    3.3559 H   0  0  0  0  0  0  0  0  0  0  0  0
    4.5316   -8.6837    4.1530 H   0  0  0  0  0  0  0  0  0  0  0  0
    2.0741  -12.1306    3.4140 H   0  0  0  0  0  0  0  0  0  0  0  0
    2.4139  -10.9302    2.2970 H   0  0  0  0  0  0  0  0  0  0  0  0
    0.7343  -11.4601    2.5063 H   0  0  0  0  0  0  0  0  0  0  0  0
    1.6519  -11.8022    5.5449 H   0  0  0  0  0  0  0  0  0  0  0  0
    0.0444  -11.7513    4.8301 H   0  0  0  0  0  0  0  0  0  0  0  0
    0.4582  -10.6402    6.1019 H   0  0  0  0  0  0  0  0  0  0  0  0
    2.6286   -6.1720    0.1408 H   0  0  0  0  0  0  0  0  0  0  0  0
    2.4427   -4.9268    1.3409 H   0  0  0  0  0  0  0  0  0  0  0  0
    2.8263   -4.1536   -0.9138 H   0  0  0  0  0  0  0  0  0  0  0  0
    4.2564   -5.1069   -1.1092 H   0  0  0  0  0  0  0  0  0  0  0  0
  1  2  2  0
  1 30  1  0
  1 31  1  0
  2 14  1  0
  2  3  1  0
  3  4  1  0
  3 32  1  0
  3 33  1  0
  4  9  1  0
  4 29  1  6
  4  5  1  0
  5  6  2  0
  5 34  1  0
  6  7  1  0
  6 35  1  0
  7  8  1  0
  7  9  1  0
  7 36  1  1
  8 37  1  0
  9 10  1  0
  9 38  1  1
 10 11  1  0
 10 12  1  0
 10 39  1  6
 11 40  1  0
 11 41  1  0
 11 42  1  0
 12 13  1  0
 12 14  1  0
 12 43  1  1
 13 44  1  0
 14 15  1  0
 14 45  1  1
 15 16  1  0
 15 28  1  0
 15 46  1  6
 16 17  1  0
 17 24  1  0
 17 18  1  0
 17 47  1  6
 18 19  1  0
 18 48  1  0
 18 49  1  0
 19 20  1  0
 19 50  1  0
 19 51  1  0
 20 25  1  0
 20 21  1  0
 20 52  1  6
 21 22  1  0
 21 53  1  0
 21 54  1  0
 22 23  1  0
 22 55  1  0
 22 56  1  0
 23 24  1  0
 23 25  1  0
 23 57  1  1
 24 58  1  0
 24 59  1  0
 25 26  1  0
 25 27  1  0
 26 60  1  0
 26 61  1  0
 26 62  1  0
 27 63  1  0
 27 64  1  0
 27 65  1  0
 28 29  1  0
 28 66  1  0
 28 67  1  0
 29 68  1  0
 29 69  1  0
M  CHG  1  25   1
M  END
>  <i_m_ct_stereo_status>  (373) 
1

>  <s_m_source_file>  (373) 
/var/tmp/pbs.5076255.sched01/tmpay8aiv4m/132fzfu5vr2.sdf

>  <i_m_source_file_index>  (373) 
40

>  <i_lp_mmshare_version>  (373) 
48012

>  <i_f3d_flags>  (373) 
0

>  <s_epik_input>  (373) 
W0NIXTE9W0NIXVtDQEBIXShbT0hdKVtDQEBIXShbQ0BAXTEyMylbQ0BASF0oW0NIM10pW0NAQEhdKFtPSF0pW0NASF0oQyg9W0NIMl0pW0NIMl0yKVtDQEhdKFtDSDJdW0NIMl0zKU9bQ0BIXShbQ0gyXVtDSDJdW0NASF00NSlbQ0gyXVtDQEhdKFtDSDJdW0NIMl00KVtOK101KFtDSDNdKVtDSDNd

>  <s_epik_cmdline>  (373) 
J2VwaWtfcHl0aG9uJywgJy1waHQnLCAnMi4wJywgJy1waCcsICc3LjAnLCAnLXRuJywgJzgnLCAnLW1hJywgJzIwMCcsICctaW1hZScsICc8aW5maWxlLm1hZT4nLCAnLW9tYWUnLCAnPG91dGZpbGUubWFlPic=

>  <r_lp_tautomer_probability>  (373) 
1

>  <r_epik_Ionization_Penalty>  (373) 
4.16601e-07

>  <r_epik_Ionization_Penalty_Charging>  (373) 
0

>  <r_epik_Ionization_Penalty_Neutral>  (373) 
4.16601e-07

>  <r_epik_State_Penalty>  (373) 
-0

>  <r_epik_Charging_Adjusted_Penalty>  (373) 
0

>  <i_epik_Tot_Q>  (373) 
1

>  <i_epik_Tot_abs_Q>  (373) 
1

>  <s_lp_Force_Field>  (373) 
OPLS3e

>  <r_lp_Energy>  (373) 
122.09

>  <b_lp_Chiralities_Consistent>  (373) 
1

>  <s_lp_Variant>  (373) 
108:0-1

>  <s_i_glide_gridfile>  (373) 
pfpi4k_grid

>  <i_i_glide_lignum>  (373) 
40

>  <i_i_glide_rotatable_bonds>  (373) 
4

>  <r_i_docking_score>  (373) 
-3.1892

>  <r_i_glide_ligand_efficiency>  (373) 
-0.109973

>  <r_i_glide_ligand_efficiency_sa>  (373) 
-0.337871

>  <r_i_glide_ligand_efficiency_ln>  (373) 
-0.730247

>  <r_i_glide_gscore>  (373) 
-3.1892

>  <r_i_glide_lipo>  (373) 
-0.491262

>  <r_i_glide_hbond>  (373) 
-0.16

>  <r_i_glide_metal>  (373) 
-0

>  <r_i_glide_rewards>  (373) 
-0.664159

>  <r_i_glide_evdw>  (373) 
-21.1692

>  <r_i_glide_ecoul>  (373) 
-6.95783

>  <r_i_glide_erotb>  (373) 
0.242169

>  <r_i_glide_esite>  (373) 
-0.0138154

>  <r_i_glide_emodel>  (373) 
-34.8179

>  <r_i_glide_energy>  (373) 
-28.1271

>  <r_i_glide_einternal>  (373) 
2.36918

>  <r_i_glide_intrahb_reward>  (373) 
-0

>  <i_i_glide_confnum>  (373) 
2

>  <i_i_glide_posenum>  (373) 
25

>  <r_i_glide_eff_state_penalty>  (373) 
0

>  <ligand_id>  (373) 
108

>  <original_smiles>  (373) 
C=C1CC23C=CC(O)C2C(C)C(O)C1C(OC1CCC2CCC(C1)[N+]2(C)C)CC3

>  <smiles>  (373) 
[H]OC1([H])C([H])=C([H])C23C([H])([H])C(=C([H])[H])C([H])(C([H])(OC4([H])C([H])([H])C([H])([H])C5([H])C([H])([H])C([H])([H])C([H])(C4([H])[H])[N+]5(C([H])([H])[H])C([H])([H])[H])C([H])([H])C2([H])[H])C([H])(O[H])C([H])(C([H])([H])[H])C13[H]

$$$$
109:0:0
     RDKit          3D

 73 78  0  0  1  0  0  0  0  0999 V2000
    2.9548    0.1182    1.7091 C   0  0  0  0  0  0  0  0  0  0  0  0
    3.2633   -0.9825    2.7722 C   0  0  0  0  0  0  0  0  0  0  0  0
    4.1941   -0.1610    3.7381 C   0  0  0  0  0  0  0  0  0  0  0  0
    1.8456   -1.1729    3.4279 C   0  0  0  0  0  0  0  0  0  0  0  0
    1.1901   -0.1910    3.7802 O   0  0  0  0  0  0  0  0  0  0  0  0
    1.3038   -2.5121    3.6714 C   0  0  0  0  0  0  0  0  0  0  0  0
    2.1227   -3.5693    3.7812 C   0  0  0  0  0  0  0  0  0  0  0  0
    3.6313   -3.4932    3.6063 C   0  0  1  0  0  0  0  0  0  0  0  0
    4.0695   -2.8534    4.9926 C   0  0  0  0  0  0  0  0  0  0  0  0
    4.2634   -4.9754    3.7428 C   0  0  2  0  0  0  0  0  0  0  0  0
    5.8064   -4.9759    3.9224 C   0  0  0  0  0  0  0  0  0  0  0  0
    6.4930   -5.1051    2.5846 C   0  0  0  0  0  0  0  0  0  0  0  0
    5.7495   -6.1090    1.6719 C   0  0  1  0  0  0  0  0  0  0  0  0
    4.9834   -7.1156    2.5426 C   0  0  0  0  0  0  0  0  0  0  0  0
    3.7412   -6.3882    3.1389 C   0  0  1  0  0  0  0  0  0  0  0  0
    3.1914   -7.3302    4.2611 C   0  0  0  0  0  0  0  0  0  0  0  0
    1.9947   -6.8613    4.8491 O   0  0  0  0  0  0  0  0  0  0  0  0
    2.7379   -6.4440    1.9452 C   0  0  1  0  0  0  0  0  0  0  0  0
    1.4301   -5.9666    2.1297 O   0  0  0  0  0  0  0  0  0  0  0  0
    3.3552   -6.1208    0.5817 C   0  0  0  0  0  0  0  0  0  0  0  0
    4.7731   -5.5082    0.6125 C   0  0  1  0  0  0  0  0  0  0  0  0
    4.8454   -4.0057    0.2579 C   0  0  2  0  0  0  0  0  0  0  0  0
    6.2665   -3.5671   -0.2168 C   0  0  0  0  0  0  0  0  0  0  0  0
    6.6209   -2.1200    0.0874 C   0  0  0  0  0  0  0  0  0  0  0  0
    7.7608   -1.7723    0.3668 O   0  0  0  0  0  0  0  0  0  0  0  0
    5.5730   -1.2456   -0.0026 O   0  0  0  0  0  0  0  0  0  0  0  0
    4.2529   -1.7332   -0.2719 C   0  0  1  0  0  0  0  0  0  0  0  0
    3.9837   -1.9118   -1.7906 C   0  0  0  0  0  0  0  0  0  0  0  0
    3.3378   -2.9670   -2.4980 C   0  0  0  0  0  0  0  0  0  0  0  0
    3.2938   -2.6230   -3.8257 C   0  0  0  0  0  0  0  0  0  0  0  0
    3.8445   -1.3956   -4.0053 O   0  0  0  0  0  0  0  0  0  0  0  0
    4.2440   -0.9801   -2.7748 C   0  0  0  0  0  0  0  0  0  0  0  0
    3.8552   -2.8674    0.7971 C   0  0  1  0  0  0  0  0  0  0  0  0
    2.3758   -3.1796    0.5010 C   0  0  0  0  0  0  0  0  0  0  0  0
    3.9682   -2.4233    2.3789 C   0  0  1  0  0  0  0  0  0  0  0  0
    3.8490    0.4999    1.2113 H   0  0  0  0  0  0  0  0  0  0  0  0
    2.5262    1.0193    2.1606 H   0  0  0  0  0  0  0  0  0  0  0  0
    2.1959   -0.1801    0.9909 H   0  0  0  0  0  0  0  0  0  0  0  0
    5.1422   -0.6485    3.9401 H   0  0  0  0  0  0  0  0  0  0  0  0
    3.7280    0.0712    4.6961 H   0  0  0  0  0  0  0  0  0  0  0  0
    4.4973    0.8083    3.3345 H   0  0  0  0  0  0  0  0  0  0  0  0
    0.2359   -2.6216    3.8269 H   0  0  0  0  0  0  0  0  0  0  0  0
    1.7106   -4.5265    4.0501 H   0  0  0  0  0  0  0  0  0  0  0  0
    5.0944   -2.4914    4.9985 H   0  0  0  0  0  0  0  0  0  0  0  0
    3.9813   -3.5219    5.8512 H   0  0  0  0  0  0  0  0  0  0  0  0
    3.4515   -2.0267    5.3200 H   0  0  0  0  0  0  0  0  0  0  0  0
    3.9944   -5.1972    4.7671 H   0  0  0  0  0  0  0  0  0  0  0  0
    6.2137   -4.1315    4.4622 H   0  0  0  0  0  0  0  0  0  0  0  0
    6.0913   -5.8263    4.5447 H   0  0  0  0  0  0  0  0  0  0  0  0
    6.5460   -4.1065    2.1860 H   0  0  0  0  0  0  0  0  0  0  0  0
    7.5313   -5.4313    2.7297 H   0  0  0  0  0  0  0  0  0  0  0  0
    6.5204   -6.6474    1.1320 H   0  0  0  0  0  0  0  0  0  0  0  0
    4.6984   -7.9877    1.9532 H   0  0  0  0  0  0  0  0  0  0  0  0
    5.6410   -7.5276    3.3043 H   0  0  0  0  0  0  0  0  0  0  0  0
    2.9896   -8.3271    3.8640 H   0  0  0  0  0  0  0  0  0  0  0  0
    3.9351   -7.4785    5.0443 H   0  0  0  0  0  0  0  0  0  0  0  0
    1.7144   -7.5000    5.4965 H   0  0  0  0  0  0  0  0  0  0  0  0
    2.4918   -7.5041    1.8503 H   0  0  0  0  0  0  0  0  0  0  0  0
    1.1242   -6.3518    2.9461 H   0  0  0  0  0  0  0  0  0  0  0  0
    3.4972   -7.0841    0.1033 H   0  0  0  0  0  0  0  0  0  0  0  0
    2.6706   -5.6230   -0.0920 H   0  0  0  0  0  0  0  0  0  0  0  0
    5.1950   -5.9537   -0.2908 H   0  0  0  0  0  0  0  0  0  0  0  0
    4.4311   -4.1761   -0.7388 H   0  0  0  0  0  0  0  0  0  0  0  0
    7.0575   -4.1847    0.1821 H   0  0  0  0  0  0  0  0  0  0  0  0
    6.3550   -3.6669   -1.2949 H   0  0  0  0  0  0  0  0  0  0  0  0
    3.6078   -0.8855   -0.1927 H   0  0  0  0  0  0  0  0  0  0  0  0
    2.9071   -3.8717   -2.1014 H   0  0  0  0  0  0  0  0  0  0  0  0
    2.8754   -3.1031   -4.7010 H   0  0  0  0  0  0  0  0  0  0  0  0
    4.6771    0.0081   -2.7469 H   0  0  0  0  0  0  0  0  0  0  0  0
    1.8034   -2.2582    0.5918 H   0  0  0  0  0  0  0  0  0  0  0  0
    1.9367   -3.8092    1.2682 H   0  0  0  0  0  0  0  0  0  0  0  0
    2.1702   -3.5923   -0.4816 H   0  0  0  0  0  0  0  0  0  0  0  0
    5.0349   -2.2530    2.4874 H   0  0  0  0  0  0  0  0  0  0  0  0
  1  2  1  0
  1 36  1  0
  1 37  1  0
  1 38  1  0
  2 35  1  0
  2  3  1  0
  2  4  1  0
  3 39  1  0
  3 40  1  0
  3 41  1  0
  4  5  2  0
  4  6  1  0
  6  7  2  0
  6 42  1  0
  7  8  1  0
  7 43  1  0
  8 35  1  0
  8  9  1  1
  8 10  1  0
  9 44  1  0
  9 45  1  0
  9 46  1  0
 10 15  1  0
 10 11  1  0
 10 47  1  1
 11 12  1  0
 11 48  1  0
 11 49  1  0
 12 13  1  0
 12 50  1  0
 12 51  1  0
 13 21  1  0
 13 14  1  0
 13 52  1  6
 14 15  1  0
 14 53  1  0
 14 54  1  0
 15 16  1  1
 15 18  1  0
 16 17  1  0
 16 55  1  0
 16 56  1  0
 17 57  1  0
 18 19  1  0
 18 20  1  0
 18 58  1  6
 19 59  1  0
 20 21  1  0
 20 60  1  0
 20 61  1  0
 21 22  1  0
 21 62  1  6
 22 33  1  0
 22 23  1  0
 22 63  1  6
 23 24  1  0
 23 64  1  0
 23 65  1  0
 24 25  2  0
 24 26  1  0
 26 27  1  0
 27 28  1  0
 27 33  1  0
 27 66  1  1
 28 32  2  0
 28 29  1  0
 29 30  2  0
 29 67  1  0
 30 31  1  0
 30 68  1  0
 31 32  1  0
 32 69  1  0
 33 34  1  6
 33 35  1  0
 34 70  1  0
 34 71  1  0
 34 72  1  0
 35 73  1  1
M  END
>  <i_m_ct_stereo_status>  (374) 
1

>  <s_m_source_file>  (374) 
/var/tmp/pbs.5076255.sched01/tmpay8aiv4m/132fzfu5vr2.sdf

>  <i_m_source_file_index>  (374) 
41

>  <i_lp_mmshare_version>  (374) 
48012

>  <i_f3d_flags>  (374) 
0

>  <s_epik_input>  (374) 
W2NIXTFvW2NIXVtjSF1jMVtDQEhdKE9DKD1PKVtDSDJdMilbQ0BdKFtDSDNdKShbQ0BIXTNDKFtDSDNdKShbQ0gzXSlDKD1PKVtDSF09W0NIXTQpW0NAQEhdMltDQEhdKFtDSDJdW0NAQEhdNVtPSF0pW0NAQEhdKFtDSDJdW0NIMl02KVtDSDJdW0NAQF01KFtDSDJdW09IXSlbQ0BASF02W0NAQF0zNFtDSDNd

>  <s_epik_cmdline>  (374) 
J2VwaWtfcHl0aG9uJywgJy1waHQnLCAnMi4wJywgJy1waCcsICc3LjAnLCAnLXRuJywgJzgnLCAnLW1hJywgJzIwMCcsICctaW1hZScsICc8aW5maWxlLm1hZT4nLCAnLW9tYWUnLCAnPG91dGZpbGUubWFlPic=

>  <r_lp_tautomer_probability>  (374) 
1

>  <r_epik_Ionization_Penalty>  (374) 
1.19616e-06

>  <r_epik_Ionization_Penalty_Charging>  (374) 
0

>  <r_epik_Ionization_Penalty_Neutral>  (374) 
1.19616e-06

>  <r_epik_State_Penalty>  (374) 
-0

>  <r_epik_Charging_Adjusted_Penalty>  (374) 
0

>  <i_epik_Tot_Q>  (374) 
0

>  <i_epik_Tot_abs_Q>  (374) 
0

>  <s_epik_Chemistry_Notes>  (374) 
This compound has an ester and may undergo hydrolysis at high or low pH.

>  <s_lp_Force_Field>  (374) 
OPLS3e

>  <r_lp_Energy>  (374) 
184.837

>  <b_lp_Chiralities_Consistent>  (374) 
1

>  <s_lp_Variant>  (374) 
109:0-1

>  <s_i_glide_gridfile>  (374) 
pfpi4k_grid

>  <i_i_glide_lignum>  (374) 
41

>  <i_i_glide_rotatable_bonds>  (374) 
4

>  <r_i_docking_score>  (374) 
-3.14732

>  <r_i_glide_ligand_efficiency>  (374) 
-0.0899235

>  <r_i_glide_ligand_efficiency_sa>  (374) 
-0.294146

>  <r_i_glide_ligand_efficiency_ln>  (374) 
-0.690907

>  <r_i_glide_gscore>  (374) 
-3.14732

>  <r_i_glide_lipo>  (374) 
-0.51418

>  <r_i_glide_hbond>  (374) 
-0.0556041

>  <r_i_glide_metal>  (374) 
-0

>  <r_i_glide_rewards>  (374) 
-0.618579

>  <r_i_glide_evdw>  (374) 
-31.6242

>  <r_i_glide_ecoul>  (374) 
-3.65071

>  <r_i_glide_erotb>  (374) 
0.174271

>  <r_i_glide_esite>  (374) 
-0.00441558

>  <r_i_glide_emodel>  (374) 
-44.8152

>  <r_i_glide_energy>  (374) 
-35.2749

>  <r_i_glide_einternal>  (374) 
2.74452

>  <r_i_glide_intrahb_reward>  (374) 
-0.5

>  <i_i_glide_confnum>  (374) 
3

>  <i_i_glide_posenum>  (374) 
28

>  <r_i_glide_eff_state_penalty>  (374) 
0

>  <ligand_id>  (374) 
109

>  <original_smiles>  (374) 
CC1(C)C(=O)C=CC2(C)C3CCC4CC3(CO)C(O)CC4C3CC(=O)OC(c4ccoc4)C3(C)C12

>  <smiles>  (374) 
[H]OC([H])([H])C12C([H])([H])C3([H])C([H])([H])C([H])([H])C1([H])C1(C([H])([H])[H])C([H])=C([H])C(=O)C(C([H])([H])[H])(C([H])([H])[H])C1([H])C1(C([H])([H])[H])C([H])(c4c([H])oc([H])c4[H])OC(=O)C([H])([H])C1([H])C3([H])C([H])([H])C2([H])O[H]

$$$$
109:0:1
     RDKit          3D

 73 78  0  0  1  0  0  0  0  0999 V2000
    3.5617    0.2194    1.9268 C   0  0  0  0  0  0  0  0  0  0  0  0
    3.7867   -0.9007    2.9899 C   0  0  0  0  0  0  0  0  0  0  0  0
    4.9226   -0.2312    3.8444 C   0  0  0  0  0  0  0  0  0  0  0  0
    2.4272   -0.8459    3.7694 C   0  0  0  0  0  0  0  0  0  0  0  0
    1.9816    0.2373    4.1526 O   0  0  0  0  0  0  0  0  0  0  0  0
    1.6868   -2.0724    4.1028 C   0  0  0  0  0  0  0  0  0  0  0  0
    2.3342   -3.2453    4.1797 C   0  0  0  0  0  0  0  0  0  0  0  0
    3.8106   -3.4201    3.8663 C   0  0  1  0  0  0  0  0  0  0  0  0
    4.4767   -2.8453    5.1867 C   0  0  0  0  0  0  0  0  0  0  0  0
    4.2032   -4.9900    3.9864 C   0  0  2  0  0  0  0  0  0  0  0  0
    5.7301   -5.2403    4.0309 C   0  0  0  0  0  0  0  0  0  0  0  0
    6.2706   -5.4984    2.6448 C   0  0  0  0  0  0  0  0  0  0  0  0
    5.2832   -6.3749    1.8338 C   0  0  1  0  0  0  0  0  0  0  0  0
    4.4486   -7.2322    2.7968 C   0  0  0  0  0  0  0  0  0  0  0  0
    3.3968   -6.2988    3.4779 C   0  0  1  0  0  0  0  0  0  0  0  0
    2.8207   -7.1211    4.6785 C   0  0  0  0  0  0  0  0  0  0  0  0
    1.8258   -6.4285    5.4113 O   0  0  0  0  0  0  0  0  0  0  0  0
    2.2941   -6.2144    2.3738 C   0  0  1  0  0  0  0  0  0  0  0  0
    1.1189   -5.4724    2.6157 O   0  0  0  0  0  0  0  0  0  0  0  0
    2.8294   -6.0427    0.9464 C   0  0  0  0  0  0  0  0  0  0  0  0
    4.3257   -5.6502    0.8390 C   0  0  1  0  0  0  0  0  0  0  0  0
    4.5983   -4.1736    0.4386 C   0  0  2  0  0  0  0  0  0  0  0  0
    6.0296   -3.9902   -0.1735 C   0  0  0  0  0  0  0  0  0  0  0  0
    6.6472   -2.6115    0.0524 C   0  0  0  0  0  0  0  0  0  0  0  0
    7.8533   -2.4581    0.2160 O   0  0  0  0  0  0  0  0  0  0  0  0
    5.7551   -1.5752    0.0293 O   0  0  0  0  0  0  0  0  0  0  0  0
    4.3491   -1.8467   -0.1080 C   0  0  1  0  0  0  0  0  0  0  0  0
    3.9120   -2.0182   -1.5983 C   0  0  0  0  0  0  0  0  0  0  0  0
    3.0223   -2.9545   -2.2160 C   0  0  0  0  0  0  0  0  0  0  0  0
    2.9193   -2.6004   -3.5294 C   0  0  0  0  0  0  0  0  0  0  0  0
    3.6988   -1.5041   -3.8140 O   0  0  0  0  0  0  0  0  0  0  0  0
    4.2799   -1.1724   -2.6333 C   0  0  0  0  0  0  0  0  0  0  0  0
    3.8488   -2.8809    1.0238 C   0  0  1  0  0  0  0  0  0  0  0  0
    2.3058   -2.9164    0.8754 C   0  0  0  0  0  0  0  0  0  0  0  0
    4.2081   -2.4408    2.5845 C   0  0  1  0  0  0  0  0  0  0  0  0
    4.4506    0.4387    1.3369 H   0  0  0  0  0  0  0  0  0  0  0  0
    3.3294    1.1852    2.3869 H   0  0  0  0  0  0  0  0  0  0  0  0
    2.6982    0.0434    1.2942 H   0  0  0  0  0  0  0  0  0  0  0  0
    5.7921   -0.8646    3.9770 H   0  0  0  0  0  0  0  0  0  0  0  0
    4.5932    0.0934    4.8328 H   0  0  0  0  0  0  0  0  0  0  0  0
    5.3466    0.6612    3.3836 H   0  0  0  0  0  0  0  0  0  0  0  0
    0.6345   -1.9943    4.3635 H   0  0  0  0  0  0  0  0  0  0  0  0
    1.8035   -4.1205    4.5316 H   0  0  0  0  0  0  0  0  0  0  0  0
    5.5409   -2.6546    5.0914 H   0  0  0  0  0  0  0  0  0  0  0  0
    4.3598   -3.4735    6.0697 H   0  0  0  0  0  0  0  0  0  0  0  0
    4.0347   -1.9220    5.5410 H   0  0  0  0  0  0  0  0  0  0  0  0
    4.0044   -5.1415    5.0393 H   0  0  0  0  0  0  0  0  0  0  0  0
    6.3069   -4.4673    4.5136 H   0  0  0  0  0  0  0  0  0  0  0  0
    5.9332   -6.1186    4.6489 H   0  0  0  0  0  0  0  0  0  0  0  0
    6.4412   -4.5252    2.2169 H   0  0  0  0  0  0  0  0  0  0  0  0
    7.2533   -5.9852    2.7073 H   0  0  0  0  0  0  0  0  0  0  0  0
    5.9038   -7.0424    1.2454 H   0  0  0  0  0  0  0  0  0  0  0  0
    3.9752   -8.0547    2.2638 H   0  0  0  0  0  0  0  0  0  0  0  0
    5.0996   -7.7349    3.5042 H   0  0  0  0  0  0  0  0  0  0  0  0
    2.4018   -8.0687    4.3351 H   0  0  0  0  0  0  0  0  0  0  0  0
    3.6059   -7.3929    5.3823 H   0  0  0  0  0  0  0  0  0  0  0  0
    1.4939   -7.0068    6.0784 H   0  0  0  0  0  0  0  0  0  0  0  0
    1.8646   -7.2159    2.3514 H   0  0  0  0  0  0  0  0  0  0  0  0
    1.3808   -4.6100    2.8963 H   0  0  0  0  0  0  0  0  0  0  0  0
    2.7370   -7.0279    0.4850 H   0  0  0  0  0  0  0  0  0  0  0  0
    2.1886   -5.4265    0.3321 H   0  0  0  0  0  0  0  0  0  0  0  0
    4.5846   -6.1695   -0.0863 H   0  0  0  0  0  0  0  0  0  0  0  0
    4.0812   -4.3009   -0.5140 H   0  0  0  0  0  0  0  0  0  0  0  0
    6.7422   -4.7186    0.1720 H   0  0  0  0  0  0  0  0  0  0  0  0
    6.0066   -4.1193   -1.2519 H   0  0  0  0  0  0  0  0  0  0  0  0
    3.8650   -0.9016    0.0017 H   0  0  0  0  0  0  0  0  0  0  0  0
    2.4733   -3.7719   -1.7667 H   0  0  0  0  0  0  0  0  0  0  0  0
    2.3338   -3.0109   -4.3531 H   0  0  0  0  0  0  0  0  0  0  0  0
    4.9222   -0.2983   -2.6868 H   0  0  0  0  0  0  0  0  0  0  0  0
    1.9024   -1.8997    0.9807 H   0  0  0  0  0  0  0  0  0  0  0  0
    1.8715   -3.4421    1.7251 H   0  0  0  0  0  0  0  0  0  0  0  0
    1.9550   -3.3292   -0.0435 H   0  0  0  0  0  0  0  0  0  0  0  0
    5.2977   -2.4487    2.5899 H   0  0  0  0  0  0  0  0  0  0  0  0
  1  2  1  0
  1 36  1  0
  1 37  1  0
  1 38  1  0
  2 35  1  0
  2  3  1  0
  2  4  1  0
  3 39  1  0
  3 40  1  0
  3 41  1  0
  4  5  2  0
  4  6  1  0
  6  7  2  0
  6 42  1  0
  7  8  1  0
  7 43  1  0
  8 35  1  0
  8  9  1  1
  8 10  1  0
  9 44  1  0
  9 45  1  0
  9 46  1  0
 10 15  1  0
 10 11  1  0
 10 47  1  1
 11 12  1  0
 11 48  1  0
 11 49  1  0
 12 13  1  0
 12 50  1  0
 12 51  1  0
 13 21  1  0
 13 14  1  0
 13 52  1  6
 14 15  1  0
 14 53  1  0
 14 54  1  0
 15 16  1  1
 15 18  1  0
 16 17  1  0
 16 55  1  0
 16 56  1  0
 17 57  1  0
 18 19  1  0
 18 20  1  0
 18 58  1  6
 19 59  1  0
 20 21  1  0
 20 60  1  0
 20 61  1  0
 21 22  1  0
 21 62  1  6
 22 33  1  0
 22 23  1  0
 22 63  1  6
 23 24  1  0
 23 64  1  0
 23 65  1  0
 24 25  2  0
 24 26  1  0
 26 27  1  0
 27 28  1  0
 27 33  1  0
 27 66  1  1
 28 32  2  0
 28 29  1  0
 29 30  2  0
 29 67  1  0
 30 31  1  0
 30 68  1  0
 31 32  1  0
 32 69  1  0
 33 34  1  1
 33 35  1  0
 34 70  1  0
 34 71  1  0
 34 72  1  0
 35 73  1  6
M  END
>  <i_m_ct_stereo_status>  (375) 
1

>  <s_m_source_file>  (375) 
/var/tmp/pbs.5076255.sched01/tmpay8aiv4m/132fzfu5vr2.sdf

>  <i_m_source_file_index>  (375) 
41

>  <i_lp_mmshare_version>  (375) 
48012

>  <i_f3d_flags>  (375) 
0

>  <s_epik_input>  (375) 
W2NIXTFvW2NIXVtjSF1jMVtDQEhdKE9DKD1PKVtDSDJdMilbQ0BdKFtDSDNdKShbQ0BIXTNDKFtDSDNdKShbQ0gzXSlDKD1PKVtDSF09W0NIXTQpW0NAQEhdMltDQEhdKFtDSDJdW0NAQEhdNVtPSF0pW0NAQEhdKFtDSDJdW0NIMl02KVtDSDJdW0NAQF01KFtDSDJdW09IXSlbQ0BASF02W0NAQF0zNFtDSDNd

>  <s_epik_cmdline>  (375) 
J2VwaWtfcHl0aG9uJywgJy1waHQnLCAnMi4wJywgJy1waCcsICc3LjAnLCAnLXRuJywgJzgnLCAnLW1hJywgJzIwMCcsICctaW1hZScsICc8aW5maWxlLm1hZT4nLCAnLW9tYWUnLCAnPG91dGZpbGUubWFlPic=

>  <r_lp_tautomer_probability>  (375) 
1

>  <r_epik_Ionization_Penalty>  (375) 
1.19616e-06

>  <r_epik_Ionization_Penalty_Charging>  (375) 
0

>  <r_epik_Ionization_Penalty_Neutral>  (375) 
1.19616e-06

>  <r_epik_State_Penalty>  (375) 
-0

>  <r_epik_Charging_Adjusted_Penalty>  (375) 
0

>  <i_epik_Tot_Q>  (375) 
0

>  <i_epik_Tot_abs_Q>  (375) 
0

>  <s_epik_Chemistry_Notes>  (375) 
This compound has an ester and may undergo hydrolysis at high or low pH.

>  <s_lp_Force_Field>  (375) 
OPLS3e

>  <r_lp_Energy>  (375) 
184.837

>  <b_lp_Chiralities_Consistent>  (375) 
1

>  <s_lp_Variant>  (375) 
109:0-1

>  <s_i_glide_gridfile>  (375) 
pfpi4k_grid

>  <i_i_glide_lignum>  (375) 
41

>  <i_i_glide_rotatable_bonds>  (375) 
4

>  <r_i_docking_score>  (375) 
-2.74483

>  <r_i_glide_ligand_efficiency>  (375) 
-0.0784236

>  <r_i_glide_ligand_efficiency_sa>  (375) 
-0.256529

>  <r_i_glide_ligand_efficiency_ln>  (375) 
-0.60255

>  <r_i_glide_gscore>  (375) 
-2.74483

>  <r_i_glide_lipo>  (375) 
-0.618223

>  <r_i_glide_hbond>  (375) 
0

>  <r_i_glide_metal>  (375) 
-0

>  <r_i_glide_rewards>  (375) 
-0.183502

>  <r_i_glide_evdw>  (375) 
-30.4483

>  <r_i_glide_ecoul>  (375) 
-3.96457

>  <r_i_glide_erotb>  (375) 
0.174271

>  <r_i_glide_esite>  (375) 
-0.000272595

>  <r_i_glide_emodel>  (375) 
-38.4361

>  <r_i_glide_energy>  (375) 
-34.4129

>  <r_i_glide_einternal>  (375) 
2.25331

>  <r_i_glide_intrahb_reward>  (375) 
-0

>  <i_i_glide_confnum>  (375) 
3

>  <i_i_glide_posenum>  (375) 
1

>  <r_i_glide_eff_state_penalty>  (375) 
0

>  <ligand_id>  (375) 
109

>  <original_smiles>  (375) 
CC1(C)C(=O)C=CC2(C)C3CCC4CC3(CO)C(O)CC4C3CC(=O)OC(c4ccoc4)C3(C)C12

>  <smiles>  (375) 
[H]OC([H])([H])C12C([H])([H])C3([H])C([H])([H])C([H])([H])C1([H])C1(C([H])([H])[H])C([H])=C([H])C(=O)C(C([H])([H])[H])(C([H])([H])[H])C1([H])C1(C([H])([H])[H])C([H])(c4c([H])oc([H])c4[H])OC(=O)C([H])([H])C1([H])C3([H])C([H])([H])C2([H])O[H]

$$$$
109:0:2
     RDKit          3D

 73 78  0  0  1  0  0  0  0  0999 V2000
    2.8588   -0.1228    1.8000 C   0  0  0  0  0  0  0  0  0  0  0  0
    3.2279   -1.2503    2.8136 C   0  0  0  0  0  0  0  0  0  0  0  0
    4.0957   -0.4120    3.8195 C   0  0  0  0  0  0  0  0  0  0  0  0
    1.8239   -1.5644    3.4408 C   0  0  0  0  0  0  0  0  0  0  0  0
    1.1063   -0.6396    3.8286 O   0  0  0  0  0  0  0  0  0  0  0  0
    1.3647   -2.9458    3.6301 C   0  0  0  0  0  0  0  0  0  0  0  0
    2.2527   -3.9462    3.6989 C   0  0  0  0  0  0  0  0  0  0  0  0
    3.7505   -3.7652    3.5335 C   0  0  1  0  0  0  0  0  0  0  0  0
    4.1395   -3.1655    4.9511 C   0  0  0  0  0  0  0  0  0  0  0  0
    4.4749   -5.2121    3.6037 C   0  0  2  0  0  0  0  0  0  0  0  0
    6.0040   -5.1234    3.8066 C   0  0  0  0  0  0  0  0  0  0  0  0
    6.7220   -5.1395    2.4742 C   0  0  0  0  0  0  0  0  0  0  0  0
    6.0481   -6.1420    1.5091 C   0  0  1  0  0  0  0  0  0  0  0  0
    5.3476   -7.2400    2.3208 C   0  0  0  0  0  0  0  0  0  0  0  0
    4.0517   -6.6230    2.9324 C   0  0  1  0  0  0  0  0  0  0  0  0
    3.5714   -7.6490    4.0104 C   0  0  0  0  0  0  0  0  0  0  0  0
    2.3851   -7.2462    4.6692 O   0  0  0  0  0  0  0  0  0  0  0  0
    3.0723   -6.6969    1.7208 C   0  0  1  0  0  0  0  0  0  0  0  0
    1.7415   -6.2662    1.8803 O   0  0  0  0  0  0  0  0  0  0  0  0
    3.6806   -6.2838    0.3825 C   0  0  0  0  0  0  0  0  0  0  0  0
    5.0409   -5.5621    0.4699 C   0  0  1  0  0  0  0  0  0  0  0  0
    5.0082   -4.0406    0.1781 C   0  0  2  0  0  0  0  0  0  0  0  0
    6.4060   -3.4906   -0.2624 C   0  0  0  0  0  0  0  0  0  0  0  0
    6.6657   -2.0395    0.1181 C   0  0  0  0  0  0  0  0  0  0  0  0
    7.7832   -1.6483    0.4203 O   0  0  0  0  0  0  0  0  0  0  0  0
    5.5652   -1.2336    0.0498 O   0  0  0  0  0  0  0  0  0  0  0  0
    4.2784   -1.7942   -0.2584 C   0  0  1  0  0  0  0  0  0  0  0  0
    4.0415   -1.9205   -1.7956 C   0  0  0  0  0  0  0  0  0  0  0  0
    3.4596   -2.9856   -2.5862 C   0  0  0  0  0  0  0  0  0  0  0  0
    3.3964   -2.5522   -3.8453 C   0  0  0  0  0  0  0  0  0  0  0  0
    3.9054   -1.2859   -3.9853 O   0  0  0  0  0  0  0  0  0  0  0  0
    4.2701   -0.9398   -2.7211 C   0  0  0  0  0  0  0  0  0  0  0  0
    3.9347   -2.9973    0.7541 C   0  0  1  0  0  0  0  0  0  0  0  0
    2.4580   -3.3753    0.4400 C   0  0  0  0  0  0  0  0  0  0  0  0
    4.0307   -2.6182    2.3645 C   0  0  1  0  0  0  0  0  0  0  0  0
    3.7273    0.3376    1.3253 H   0  0  0  0  0  0  0  0  0  0  0  0
    2.3634    0.7239    2.2865 H   0  0  0  0  0  0  0  0  0  0  0  0
    2.1249   -0.4347    1.0654 H   0  0  0  0  0  0  0  0  0  0  0  0
    5.0704   -0.8463    4.0086 H   0  0  0  0  0  0  0  0  0  0  0  0
    3.6089   -0.2568    4.7814 H   0  0  0  0  0  0  0  0  0  0  0  0
    4.3379    0.5911    3.4596 H   0  0  0  0  0  0  0  0  0  0  0  0
    0.3036   -3.1267    3.7655 H   0  0  0  0  0  0  0  0  0  0  0  0
    1.9080   -4.9437    3.9136 H   0  0  0  0  0  0  0  0  0  0  0  0
    5.1348   -2.7304    4.9851 H   0  0  0  0  0  0  0  0  0  0  0  0
    4.0899   -3.8767    5.7777 H   0  0  0  0  0  0  0  0  0  0  0  0
    3.4667   -2.3970    5.3090 H   0  0  0  0  0  0  0  0  0  0  0  0
    4.2230   -5.4927    4.6174 H   0  0  0  0  0  0  0  0  0  0  0  0
    6.3025   -4.2904    4.4209 H   0  0  0  0  0  0  0  0  0  0  0  0
    6.3483   -5.9811    4.3886 H   0  0  0  0  0  0  0  0  0  0  0  0
    6.6992   -4.1286    2.1102 H   0  0  0  0  0  0  0  0  0  0  0  0
    7.7816   -5.4020    2.6103 H   0  0  0  0  0  0  0  0  0  0  0  0
    6.8540   -6.6017    0.9499 H   0  0  0  0  0  0  0  0  0  0  0  0
    5.1272   -8.1022    1.6904 H   0  0  0  0  0  0  0  0  0  0  0  0
    6.0276   -7.6403    3.0671 H   0  0  0  0  0  0  0  0  0  0  0  0
    3.4245   -8.6413    3.5762 H   0  0  0  0  0  0  0  0  0  0  0  0
    4.3250   -7.7824    4.7822 H   0  0  0  0  0  0  0  0  0  0  0  0
    1.6372   -7.5180    4.1615 H   0  0  0  0  0  0  0  0  0  0  0  0
    2.8911   -7.7663    1.5895 H   0  0  0  0  0  0  0  0  0  0  0  0
    1.3630   -6.7617    2.5859 H   0  0  0  0  0  0  0  0  0  0  0  0
    3.8819   -7.2158   -0.1535 H   0  0  0  0  0  0  0  0  0  0  0  0
    2.9681   -5.7836   -0.2560 H   0  0  0  0  0  0  0  0  0  0  0  0
    5.4914   -5.9286   -0.4511 H   0  0  0  0  0  0  0  0  0  0  0  0
    4.6232   -4.2049   -0.8284 H   0  0  0  0  0  0  0  0  0  0  0  0
    7.2354   -4.0721    0.1129 H   0  0  0  0  0  0  0  0  0  0  0  0
    6.5152   -3.5314   -1.3446 H   0  0  0  0  0  0  0  0  0  0  0  0
    3.5801   -0.9921   -0.1472 H   0  0  0  0  0  0  0  0  0  0  0  0
    3.0902   -3.9391   -2.2479 H   0  0  0  0  0  0  0  0  0  0  0  0
    2.9996   -3.0235   -4.7603 H   0  0  0  0  0  0  0  0  0  0  0  0
    4.6787    0.0724   -2.6507 H   0  0  0  0  0  0  0  0  0  0  0  0
    1.8276   -2.4862    0.5879 H   0  0  0  0  0  0  0  0  0  0  0  0
    2.0951   -4.0630    1.2120 H   0  0  0  0  0  0  0  0  0  0  0  0
    2.2612   -3.7801   -0.5065 H   0  0  0  0  0  0  0  0  0  0  0  0
    5.0851   -2.3861    2.4883 H   0  0  0  0  0  0  0  0  0  0  0  0
  1  2  1  0
  1 36  1  0
  1 37  1  0
  1 38  1  0
  2 35  1  0
  2  3  1  0
  2  4  1  0
  3 39  1  0
  3 40  1  0
  3 41  1  0
  4  5  2  0
  4  6  1  0
  6  7  2  0
  6 42  1  0
  7  8  1  0
  7 43  1  0
  8 35  1  0
  8  9  1  1
  8 10  1  0
  9 44  1  0
  9 45  1  0
  9 46  1  0
 10 15  1  0
 10 11  1  0
 10 47  1  1
 11 12  1  0
 11 48  1  0
 11 49  1  0
 12 13  1  0
 12 50  1  0
 12 51  1  0
 13 21  1  0
 13 14  1  0
 13 52  1  6
 14 15  1  0
 14 53  1  0
 14 54  1  0
 15 16  1  1
 15 18  1  0
 16 17  1  0
 16 55  1  0
 16 56  1  0
 17 57  1  0
 18 19  1  0
 18 20  1  0
 18 58  1  6
 19 59  1  0
 20 21  1  0
 20 60  1  0
 20 61  1  0
 21 22  1  0
 21 62  1  6
 22 33  1  0
 22 23  1  0
 22 63  1  6
 23 24  1  0
 23 64  1  0
 23 65  1  0
 24 25  2  0
 24 26  1  0
 26 27  1  0
 27 28  1  0
 27 33  1  0
 27 66  1  1
 28 32  2  0
 28 29  1  0
 29 30  2  0
 29 67  1  0
 30 31  1  0
 30 68  1  0
 31 32  1  0
 32 69  1  0
 33 34  1  6
 33 35  1  0
 34 70  1  0
 34 71  1  0
 34 72  1  0
 35 73  1  6
M  END
>  <i_m_ct_stereo_status>  (376) 
1

>  <s_m_source_file>  (376) 
/var/tmp/pbs.5076255.sched01/tmpay8aiv4m/132fzfu5vr2.sdf

>  <i_m_source_file_index>  (376) 
41

>  <i_lp_mmshare_version>  (376) 
48012

>  <i_f3d_flags>  (376) 
0

>  <s_epik_input>  (376) 
W2NIXTFvW2NIXVtjSF1jMVtDQEhdKE9DKD1PKVtDSDJdMilbQ0BdKFtDSDNdKShbQ0BIXTNDKFtDSDNdKShbQ0gzXSlDKD1PKVtDSF09W0NIXTQpW0NAQEhdMltDQEhdKFtDSDJdW0NAQEhdNVtPSF0pW0NAQEhdKFtDSDJdW0NIMl02KVtDSDJdW0NAQF01KFtDSDJdW09IXSlbQ0BASF02W0NAQF0zNFtDSDNd

>  <s_epik_cmdline>  (376) 
J2VwaWtfcHl0aG9uJywgJy1waHQnLCAnMi4wJywgJy1waCcsICc3LjAnLCAnLXRuJywgJzgnLCAnLW1hJywgJzIwMCcsICctaW1hZScsICc8aW5maWxlLm1hZT4nLCAnLW9tYWUnLCAnPG91dGZpbGUubWFlPic=

>  <r_lp_tautomer_probability>  (376) 
1

>  <r_epik_Ionization_Penalty>  (376) 
1.19616e-06

>  <r_epik_Ionization_Penalty_Charging>  (376) 
0

>  <r_epik_Ionization_Penalty_Neutral>  (376) 
1.19616e-06

>  <r_epik_State_Penalty>  (376) 
-0

>  <r_epik_Charging_Adjusted_Penalty>  (376) 
0

>  <i_epik_Tot_Q>  (376) 
0

>  <i_epik_Tot_abs_Q>  (376) 
0

>  <s_epik_Chemistry_Notes>  (376) 
This compound has an ester and may undergo hydrolysis at high or low pH.

>  <s_lp_Force_Field>  (376) 
OPLS3e

>  <r_lp_Energy>  (376) 
184.837

>  <b_lp_Chiralities_Consistent>  (376) 
1

>  <s_lp_Variant>  (376) 
109:0-1

>  <s_i_glide_gridfile>  (376) 
pfpi4k_grid

>  <i_i_glide_lignum>  (376) 
41

>  <i_i_glide_rotatable_bonds>  (376) 
4

>  <r_i_docking_score>  (376) 
-2.64859

>  <r_i_glide_ligand_efficiency>  (376) 
-0.0756741

>  <r_i_glide_ligand_efficiency_sa>  (376) 
-0.247535

>  <r_i_glide_ligand_efficiency_ln>  (376) 
-0.581425

>  <r_i_glide_gscore>  (376) 
-2.64859

>  <r_i_glide_lipo>  (376) 
-0.652636

>  <r_i_glide_hbond>  (376) 
-0.0243178

>  <r_i_glide_metal>  (376) 
-0

>  <r_i_glide_rewards>  (376) 
-0.118579

>  <r_i_glide_evdw>  (376) 
-30.9286

>  <r_i_glide_ecoul>  (376) 
-3.17374

>  <r_i_glide_erotb>  (376) 
0.174271

>  <r_i_glide_esite>  (376) 
-0.00484224

>  <r_i_glide_emodel>  (376) 
-37.5158

>  <r_i_glide_energy>  (376) 
-34.1023

>  <r_i_glide_einternal>  (376) 
2.41177

>  <r_i_glide_intrahb_reward>  (376) 
-0

>  <i_i_glide_confnum>  (376) 
3

>  <i_i_glide_posenum>  (376) 
24

>  <r_i_glide_eff_state_penalty>  (376) 
0

>  <ligand_id>  (376) 
109

>  <original_smiles>  (376) 
CC1(C)C(=O)C=CC2(C)C3CCC4CC3(CO)C(O)CC4C3CC(=O)OC(c4ccoc4)C3(C)C12

>  <smiles>  (376) 
[H]OC([H])([H])C12C([H])([H])C3([H])C([H])([H])C([H])([H])C1([H])C1(C([H])([H])[H])C([H])=C([H])C(=O)C(C([H])([H])[H])(C([H])([H])[H])C1([H])C1(C([H])([H])[H])C([H])(c4c([H])oc([H])c4[H])OC(=O)C([H])([H])C1([H])C3([H])C([H])([H])C2([H])O[H]

$$$$
110:0:0
     RDKit          3D

 31 34  0  0  1  0  0  0  0  0999 V2000
    4.5618   -1.6381    3.8493 C   0  0  0  0  0  0  0  0  0  0  0  0
    4.0461   -1.4023    2.4180 C   0  0  2  0  0  0  0  0  0  0  0  0
    2.9958   -2.4448    2.0250 C   0  0  0  0  0  0  0  0  0  0  0  0
    3.7670   -3.5706    1.3325 C   0  0  0  0  0  0  0  0  0  0  0  0
    5.1500   -3.0239    0.9736 C   0  0  1  0  0  0  0  0  0  0  0  0
    6.1753   -3.9405    1.2962 O   0  0  0  0  0  0  0  0  0  0  0  0
    6.1328   -3.5442   -0.0806 C   0  0  2  0  0  0  0  0  0  0  0  0
    7.0193   -2.5273   -0.5435 O   0  0  0  0  0  0  0  0  0  0  0  0
    6.4742   -2.2362   -1.9005 O   0  0  0  0  0  0  0  0  0  0  0  0
    5.1288   -2.6789   -1.8039 C   0  0  2  0  0  0  0  0  0  0  0  0
    4.6193   -3.0565   -3.2054 C   0  0  0  0  0  0  0  0  0  0  0  0
    4.2753   -1.5133   -1.1809 C   0  0  0  0  0  0  0  0  0  0  0  0
    4.8719   -0.7400    0.0491 C   0  0  0  0  0  0  0  0  0  0  0  0
    5.1453   -1.5606    1.3437 C   0  0  1  0  0  0  0  0  0  0  0  0
    5.1200   -3.8636   -1.0105 O   0  0  0  0  0  0  0  0  0  0  0  0
    5.0107   -2.6249    3.9600 H   0  0  0  0  0  0  0  0  0  0  0  0
    3.7510   -1.5646    4.5743 H   0  0  0  0  0  0  0  0  0  0  0  0
    5.3102   -0.8967    4.1296 H   0  0  0  0  0  0  0  0  0  0  0  0
    3.6060   -0.4040    2.3980 H   0  0  0  0  0  0  0  0  0  0  0  0
    2.4100   -2.8058    2.8690 H   0  0  0  0  0  0  0  0  0  0  0  0
    2.2935   -2.0007    1.3189 H   0  0  0  0  0  0  0  0  0  0  0  0
    3.8879   -4.4341    1.9853 H   0  0  0  0  0  0  0  0  0  0  0  0
    3.2279   -3.8923    0.4425 H   0  0  0  0  0  0  0  0  0  0  0  0
    5.2462   -3.8290   -3.6514 H   0  0  0  0  0  0  0  0  0  0  0  0
    4.6250   -2.1938   -3.8701 H   0  0  0  0  0  0  0  0  0  0  0  0
    3.6004   -3.4439   -3.1617 H   0  0  0  0  0  0  0  0  0  0  0  0
    4.1123   -0.7686   -1.9592 H   0  0  0  0  0  0  0  0  0  0  0  0
    3.2803   -1.8863   -0.9320 H   0  0  0  0  0  0  0  0  0  0  0  0
    5.8085   -0.2781   -0.2648 H   0  0  0  0  0  0  0  0  0  0  0  0
    4.2215    0.1053    0.2794 H   0  0  0  0  0  0  0  0  0  0  0  0
    6.1158   -1.2686    1.7544 H   0  0  0  0  0  0  0  0  0  0  0  0
  1  2  1  0
  1 16  1  0
  1 17  1  0
  1 18  1  0
  2 14  1  0
  2  3  1  0
  2 19  1  1
  3  4  1  0
  3 20  1  0
  3 21  1  0
  4  5  1  0
  4 22  1  0
  4 23  1  0
  5  7  1  0
  5 14  1  0
  5  6  1  1
  7  6  1  1
  7 15  1  0
  7  8  1  0
  8  9  1  0
  9 10  1  0
 10 11  1  6
 10 12  1  0
 10 15  1  0
 11 24  1  0
 11 25  1  0
 11 26  1  0
 12 13  1  0
 12 27  1  0
 12 28  1  0
 13 14  1  0
 13 29  1  0
 13 30  1  0
 14 31  1  1
M  END
>  <i_m_ct_stereo_status>  (377) 
1

>  <s_m_source_file>  (377) 
/var/tmp/pbs.5076255.sched01/tmpay8aiv4m/132fzfu5vr2.sdf

>  <i_m_source_file_index>  (377) 
42

>  <i_lp_mmshare_version>  (377) 
48012

>  <i_f3d_flags>  (377) 
0

>  <s_epik_input>  (377) 
W0NIMl0xW0NIMl1bQ0BASF0oW0NIM10pW0NAQEhdMltDSDJdW0NIMl1bQ0BAXShPMykoW0NIM10pT09DMyhbQ0BdMTI0KU80

>  <s_epik_cmdline>  (377) 
J2VwaWtfcHl0aG9uJywgJy1waHQnLCAnMi4wJywgJy1waCcsICc3LjAnLCAnLXRuJywgJzgnLCAnLW1hJywgJzIwMCcsICctaW1hZScsICc8aW5maWxlLm1hZT4nLCAnLW9tYWUnLCAnPG91dGZpbGUubWFlPic=

>  <r_lp_tautomer_probability>  (377) 
1

>  <r_epik_Ionization_Penalty>  (377) 
1.18402e-15

>  <r_epik_Ionization_Penalty_Charging>  (377) 
0

>  <r_epik_Ionization_Penalty_Neutral>  (377) 
1.18402e-15

>  <r_epik_State_Penalty>  (377) 
-0

>  <r_epik_Charging_Adjusted_Penalty>  (377) 
0

>  <i_epik_Tot_Q>  (377) 
0

>  <i_epik_Tot_abs_Q>  (377) 
0

>  <s_lp_Force_Field>  (377) 
OPLS3e

>  <r_lp_Energy>  (377) 
29.482

>  <b_lp_Chiralities_Consistent>  (377) 
1

>  <s_lp_Variant>  (377) 
110:0-1

>  <s_i_glide_gridfile>  (377) 
pfpi4k_grid

>  <i_i_glide_lignum>  (377) 
42

>  <i_i_glide_rotatable_bonds>  (377) 
0

>  <r_i_docking_score>  (377) 
-3.75868

>  <r_i_glide_ligand_efficiency>  (377) 
-0.250578

>  <r_i_glide_ligand_efficiency_sa>  (377) 
-0.617979

>  <r_i_glide_ligand_efficiency_ln>  (377) 
-1.01365

>  <r_i_glide_gscore>  (377) 
-3.75868

>  <r_i_glide_lipo>  (377) 
-0.342356

>  <r_i_glide_hbond>  (377) 
-0.176519

>  <r_i_glide_metal>  (377) 
-0

>  <r_i_glide_rewards>  (377) 
-2.09145

>  <r_i_glide_evdw>  (377) 
-19.4526

>  <r_i_glide_ecoul>  (377) 
-1.17147

>  <r_i_glide_erotb>  (377) 
0

>  <r_i_glide_esite>  (377) 
0

>  <r_i_glide_emodel>  (377) 
-25.435

>  <r_i_glide_energy>  (377) 
-20.6241

>  <r_i_glide_einternal>  (377) 
0

>  <r_i_glide_intrahb_reward>  (377) 
-0

>  <i_i_glide_confnum>  (377) 
1

>  <i_i_glide_posenum>  (377) 
21

>  <r_i_glide_eff_state_penalty>  (377) 
0

>  <ligand_id>  (377) 
110

>  <original_smiles>  (377) 
CC1CCC23OC24OOC(C)(CCC13)O4

>  <smiles>  (377) 
[H]C([H])([H])C12OOC3(O1)OC31C([H])([H])C([H])([H])C([H])(C([H])([H])[H])C1([H])C([H])([H])C2([H])[H]

$$$$
110:0:1
     RDKit          3D

 31 34  0  0  1  0  0  0  0  0999 V2000
    4.8964   -3.3981   -3.4822 C   0  0  0  0  0  0  0  0  0  0  0  0
    3.9012   -2.9666   -2.3945 C   0  0  2  0  0  0  0  0  0  0  0  0
    3.8465   -1.4433   -2.2676 C   0  0  0  0  0  0  0  0  0  0  0  0
    4.8543   -1.0846   -1.1746 C   0  0  0  0  0  0  0  0  0  0  0  0
    5.1896   -2.3625   -0.4090 C   0  0  1  0  0  0  0  0  0  0  0  0
    6.5804   -2.4741   -0.1857 O   0  0  0  0  0  0  0  0  0  0  0  0
    5.7860   -2.5239    0.9889 C   0  0  2  0  0  0  0  0  0  0  0  0
    5.4512   -3.7968    1.5592 O   0  0  0  0  0  0  0  0  0  0  0  0
    4.4197   -3.4198    2.5578 O   0  0  0  0  0  0  0  0  0  0  0  0
    3.9479   -2.1666    2.0702 C   0  0  2  0  0  0  0  0  0  0  0  0
    3.3826   -1.3263    3.2276 C   0  0  0  0  0  0  0  0  0  0  0  0
    2.8312   -2.4731    1.0172 C   0  0  0  0  0  0  0  0  0  0  0  0
    3.0916   -3.6216   -0.0188 C   0  0  0  0  0  0  0  0  0  0  0  0
    4.3024   -3.4462   -0.9806 C   0  0  1  0  0  0  0  0  0  0  0  0
    5.0391   -1.4486    1.5113 O   0  0  0  0  0  0  0  0  0  0  0  0
    5.9062   -3.0423   -3.2778 H   0  0  0  0  0  0  0  0  0  0  0  0
    4.5867   -2.9964   -4.4450 H   0  0  0  0  0  0  0  0  0  0  0  0
    4.9383   -4.4829   -3.5817 H   0  0  0  0  0  0  0  0  0  0  0  0
    2.9229   -3.3500   -2.6919 H   0  0  0  0  0  0  0  0  0  0  0  0
    4.0433   -0.9154   -3.1994 H   0  0  0  0  0  0  0  0  0  0  0  0
    2.8515   -1.1447   -1.9406 H   0  0  0  0  0  0  0  0  0  0  0  0
    5.7730   -0.6791   -1.5948 H   0  0  0  0  0  0  0  0  0  0  0  0
    4.4238   -0.3369   -0.5098 H   0  0  0  0  0  0  0  0  0  0  0  0
    4.1448   -1.1496    3.9887 H   0  0  0  0  0  0  0  0  0  0  0  0
    2.5379   -1.8227    3.7096 H   0  0  0  0  0  0  0  0  0  0  0  0
    3.0362   -0.3492    2.8768 H   0  0  0  0  0  0  0  0  0  0  0  0
    1.9231   -2.7427    1.5556 H   0  0  0  0  0  0  0  0  0  0  0  0
    2.5990   -1.5505    0.4844 H   0  0  0  0  0  0  0  0  0  0  0  0
    3.2308   -4.5524    0.5313 H   0  0  0  0  0  0  0  0  0  0  0  0
    2.1876   -3.7876   -0.6071 H   0  0  0  0  0  0  0  0  0  0  0  0
    4.8491   -4.3880   -1.0527 H   0  0  0  0  0  0  0  0  0  0  0  0
  1  2  1  0
  1 16  1  0
  1 17  1  0
  1 18  1  0
  2 14  1  0
  2  3  1  0
  2 19  1  6
  3  4  1  0
  3 20  1  0
  3 21  1  0
  4  5  1  0
  4 22  1  0
  4 23  1  0
  5  7  1  0
  5 14  1  0
  5  6  1  6
  7  6  1  6
  7 15  1  0
  7  8  1  0
  8  9  1  0
  9 10  1  0
 10 11  1  1
 10 12  1  0
 10 15  1  0
 11 24  1  0
 11 25  1  0
 11 26  1  0
 12 13  1  0
 12 27  1  0
 12 28  1  0
 13 14  1  0
 13 29  1  0
 13 30  1  0
 14 31  1  6
M  END
>  <i_m_ct_stereo_status>  (378) 
1

>  <s_m_source_file>  (378) 
/var/tmp/pbs.5076255.sched01/tmpay8aiv4m/132fzfu5vr2.sdf

>  <i_m_source_file_index>  (378) 
42

>  <i_lp_mmshare_version>  (378) 
48012

>  <i_f3d_flags>  (378) 
0

>  <s_epik_input>  (378) 
W0NIMl0xW0NIMl1bQ0BASF0oW0NIM10pW0NAQEhdMltDSDJdW0NIMl1bQ0BAXShPMykoW0NIM10pT09DMyhbQ0BdMTI0KU80

>  <s_epik_cmdline>  (378) 
J2VwaWtfcHl0aG9uJywgJy1waHQnLCAnMi4wJywgJy1waCcsICc3LjAnLCAnLXRuJywgJzgnLCAnLW1hJywgJzIwMCcsICctaW1hZScsICc8aW5maWxlLm1hZT4nLCAnLW9tYWUnLCAnPG91dGZpbGUubWFlPic=

>  <r_lp_tautomer_probability>  (378) 
1

>  <r_epik_Ionization_Penalty>  (378) 
1.18402e-15

>  <r_epik_Ionization_Penalty_Charging>  (378) 
0

>  <r_epik_Ionization_Penalty_Neutral>  (378) 
1.18402e-15

>  <r_epik_State_Penalty>  (378) 
-0

>  <r_epik_Charging_Adjusted_Penalty>  (378) 
0

>  <i_epik_Tot_Q>  (378) 
0

>  <i_epik_Tot_abs_Q>  (378) 
0

>  <s_lp_Force_Field>  (378) 
OPLS3e

>  <r_lp_Energy>  (378) 
29.482

>  <b_lp_Chiralities_Consistent>  (378) 
1

>  <s_lp_Variant>  (378) 
110:0-1

>  <s_i_glide_gridfile>  (378) 
pfpi4k_grid

>  <i_i_glide_lignum>  (378) 
42

>  <i_i_glide_rotatable_bonds>  (378) 
0

>  <r_i_docking_score>  (378) 
-3.48618

>  <r_i_glide_ligand_efficiency>  (378) 
-0.232412

>  <r_i_glide_ligand_efficiency_sa>  (378) 
-0.573177

>  <r_i_glide_ligand_efficiency_ln>  (378) 
-0.940166

>  <r_i_glide_gscore>  (378) 
-3.48618

>  <r_i_glide_lipo>  (378) 
-0.256161

>  <r_i_glide_hbond>  (378) 
0

>  <r_i_glide_metal>  (378) 
-0

>  <r_i_glide_rewards>  (378) 
-2.06567

>  <r_i_glide_evdw>  (378) 
-19.4363

>  <r_i_glide_ecoul>  (378) 
-1.27491

>  <r_i_glide_erotb>  (378) 
0

>  <r_i_glide_esite>  (378) 
-0.00130281

>  <r_i_glide_emodel>  (378) 
-25.1336

>  <r_i_glide_energy>  (378) 
-20.7112

>  <r_i_glide_einternal>  (378) 
0

>  <r_i_glide_intrahb_reward>  (378) 
-0

>  <i_i_glide_confnum>  (378) 
2

>  <i_i_glide_posenum>  (378) 
6

>  <r_i_glide_eff_state_penalty>  (378) 
0

>  <ligand_id>  (378) 
110

>  <original_smiles>  (378) 
CC1CCC23OC24OOC(C)(CCC13)O4

>  <smiles>  (378) 
[H]C([H])([H])C12OOC3(O1)OC31C([H])([H])C([H])([H])C([H])(C([H])([H])[H])C1([H])C([H])([H])C2([H])[H]

$$$$
110:0:2
     RDKit          3D

 31 34  0  0  1  0  0  0  0  0999 V2000
    4.5932   -2.9786   -3.5064 C   0  0  0  0  0  0  0  0  0  0  0  0
    3.9137   -2.9313   -2.1298 C   0  0  2  0  0  0  0  0  0  0  0  0
    3.8974   -1.5108   -1.5672 C   0  0  0  0  0  0  0  0  0  0  0  0
    5.1558   -1.3949   -0.7038 C   0  0  0  0  0  0  0  0  0  0  0  0
    5.6812   -2.8096   -0.4455 C   0  0  1  0  0  0  0  0  0  0  0  0
    7.0792   -2.8759   -0.6314 O   0  0  0  0  0  0  0  0  0  0  0  0
    6.6221   -3.2954    0.6571 C   0  0  2  0  0  0  0  0  0  0  0  0
    6.4284   -4.6927    0.9033 O   0  0  0  0  0  0  0  0  0  0  0  0
    5.7033   -4.6767    2.1950 O   0  0  0  0  0  0  0  0  0  0  0  0
    5.1107   -3.3853    2.2150 C   0  0  2  0  0  0  0  0  0  0  0  0
    4.8862   -2.9271    3.6634 C   0  0  0  0  0  0  0  0  0  0  0  0
    3.7596   -3.4627    1.4286 C   0  0  0  0  0  0  0  0  0  0  0  0
    3.7471   -4.2690    0.0859 C   0  0  0  0  0  0  0  0  0  0  0  0
    4.6692   -3.7478   -1.0549 C   0  0  1  0  0  0  0  0  0  0  0  0
    6.0267   -2.4717    1.6238 O   0  0  0  0  0  0  0  0  0  0  0  0
    5.6272   -2.6410   -3.4546 H   0  0  0  0  0  0  0  0  0  0  0  0
    4.0665   -2.3423   -4.2181 H   0  0  0  0  0  0  0  0  0  0  0  0
    4.5976   -3.9891   -3.9146 H   0  0  0  0  0  0  0  0  0  0  0  0
    2.8915   -3.2893   -2.2695 H   0  0  0  0  0  0  0  0  0  0  0  0
    3.8457   -0.7346   -2.3312 H   0  0  0  0  0  0  0  0  0  0  0  0
    3.0200   -1.3861   -0.9324 H   0  0  0  0  0  0  0  0  0  0  0  0
    5.9242   -0.8241   -1.2142 H   0  0  0  0  0  0  0  0  0  0  0  0
    4.9149   -0.8866    0.2269 H   0  0  0  0  0  0  0  0  0  0  0  0
    5.8131   -2.9159    4.2280 H   0  0  0  0  0  0  0  0  0  0  0  0
    4.1981   -3.5961    4.1801 H   0  0  0  0  0  0  0  0  0  0  0  0
    4.4660   -1.9192    3.7047 H   0  0  0  0  0  0  0  0  0  0  0  0
    3.0356   -3.9449    2.0830 H   0  0  0  0  0  0  0  0  0  0  0  0
    3.3761   -2.4547    1.2604 H   0  0  0  0  0  0  0  0  0  0  0  0
    4.0310   -5.2995    0.3058 H   0  0  0  0  0  0  0  0  0  0  0  0
    2.7233   -4.3406   -0.2767 H   0  0  0  0  0  0  0  0  0  0  0  0
    5.1737   -4.5970   -1.5231 H   0  0  0  0  0  0  0  0  0  0  0  0
  1  2  1  0
  1 16  1  0
  1 17  1  0
  1 18  1  0
  2 14  1  0
  2  3  1  0
  2 19  1  6
  3  4  1  0
  3 20  1  0
  3 21  1  0
  4  5  1  0
  4 22  1  0
  4 23  1  0
  5  7  1  0
  5 14  1  0
  5  6  1  6
  7  6  1  6
  7 15  1  0
  7  8  1  0
  8  9  1  0
  9 10  1  0
 10 11  1  1
 10 12  1  0
 10 15  1  0
 11 24  1  0
 11 25  1  0
 11 26  1  0
 12 13  1  0
 12 27  1  0
 12 28  1  0
 13 14  1  0
 13 29  1  0
 13 30  1  0
 14 31  1  6
M  END
>  <i_m_ct_stereo_status>  (379) 
1

>  <s_m_source_file>  (379) 
/var/tmp/pbs.5076255.sched01/tmpay8aiv4m/132fzfu5vr2.sdf

>  <i_m_source_file_index>  (379) 
42

>  <i_lp_mmshare_version>  (379) 
48012

>  <i_f3d_flags>  (379) 
0

>  <s_epik_input>  (379) 
W0NIMl0xW0NIMl1bQ0BASF0oW0NIM10pW0NAQEhdMltDSDJdW0NIMl1bQ0BAXShPMykoW0NIM10pT09DMyhbQ0BdMTI0KU80

>  <s_epik_cmdline>  (379) 
J2VwaWtfcHl0aG9uJywgJy1waHQnLCAnMi4wJywgJy1waCcsICc3LjAnLCAnLXRuJywgJzgnLCAnLW1hJywgJzIwMCcsICctaW1hZScsICc8aW5maWxlLm1hZT4nLCAnLW9tYWUnLCAnPG91dGZpbGUubWFlPic=

>  <r_lp_tautomer_probability>  (379) 
1

>  <r_epik_Ionization_Penalty>  (379) 
1.18402e-15

>  <r_epik_Ionization_Penalty_Charging>  (379) 
0

>  <r_epik_Ionization_Penalty_Neutral>  (379) 
1.18402e-15

>  <r_epik_State_Penalty>  (379) 
-0

>  <r_epik_Charging_Adjusted_Penalty>  (379) 
0

>  <i_epik_Tot_Q>  (379) 
0

>  <i_epik_Tot_abs_Q>  (379) 
0

>  <s_lp_Force_Field>  (379) 
OPLS3e

>  <r_lp_Energy>  (379) 
29.482

>  <b_lp_Chiralities_Consistent>  (379) 
1

>  <s_lp_Variant>  (379) 
110:0-1

>  <s_i_glide_gridfile>  (379) 
pfpi4k_grid

>  <i_i_glide_lignum>  (379) 
42

>  <i_i_glide_rotatable_bonds>  (379) 
0

>  <r_i_docking_score>  (379) 
-3.457

>  <r_i_glide_ligand_efficiency>  (379) 
-0.230466

>  <r_i_glide_ligand_efficiency_sa>  (379) 
-0.568379

>  <r_i_glide_ligand_efficiency_ln>  (379) 
-0.932295

>  <r_i_glide_gscore>  (379) 
-3.457

>  <r_i_glide_lipo>  (379) 
-0.228603

>  <r_i_glide_hbond>  (379) 
0

>  <r_i_glide_metal>  (379) 
-0

>  <r_i_glide_rewards>  (379) 
-2.1493

>  <r_i_glide_evdw>  (379) 
-19.182

>  <r_i_glide_ecoul>  (379) 
-0.799949

>  <r_i_glide_erotb>  (379) 
0

>  <r_i_glide_esite>  (379) 
0

>  <r_i_glide_emodel>  (379) 
-24.3684

>  <r_i_glide_energy>  (379) 
-19.982

>  <r_i_glide_einternal>  (379) 
0

>  <r_i_glide_intrahb_reward>  (379) 
-0

>  <i_i_glide_confnum>  (379) 
1

>  <i_i_glide_posenum>  (379) 
22

>  <r_i_glide_eff_state_penalty>  (379) 
0

>  <ligand_id>  (379) 
110

>  <original_smiles>  (379) 
CC1CCC23OC24OOC(C)(CCC13)O4

>  <smiles>  (379) 
[H]C([H])([H])C12OOC3(O1)OC31C([H])([H])C([H])([H])C([H])(C([H])([H])[H])C1([H])C([H])([H])C2([H])[H]

$$$$
111:0:0
     RDKit          3D

 69 73  0  0  1  0  0  0  0  0999 V2000
   -1.2453   -8.2255    4.1689 C   0  0  0  0  0  0  0  0  0  0  0  0
   -0.2903   -8.0254    3.2342 C   0  0  0  0  0  0  0  0  0  0  0  0
   -0.5649   -7.1395    2.0309 C   0  0  0  0  0  0  0  0  0  0  0  0
    1.0806   -8.7088    3.2912 C   0  0  2  0  0  0  0  0  0  0  0  0
    0.8371  -10.2405    3.2923 C   0  0  1  0  0  0  0  0  0  0  0  0
   -0.0298  -10.6313    2.2489 O   0  0  0  0  0  0  0  0  0  0  0  0
    2.1237  -11.0333    3.1244 C   0  0  0  0  0  0  0  0  0  0  0  0
    3.1758  -10.6662    4.1564 C   0  0  1  0  0  0  0  0  0  0  0  0
    3.5095  -11.8925    4.9963 C   0  0  0  0  0  0  0  0  0  0  0  0
    4.2995   -9.7218    3.7619 C   0  0  1  0  0  0  0  0  0  0  0  0
    4.5269   -9.2370    2.3201 C   0  0  0  0  0  0  0  0  0  0  0  0
    5.9478   -8.6758    2.0696 C   0  0  0  0  0  0  0  0  0  0  0  0
    6.0036   -7.2174    1.6161 C   0  0  1  0  0  0  0  0  0  0  0  0
    5.5198   -6.0392    2.4337 C   0  0  1  0  0  0  0  0  0  0  0  0
    4.7902   -6.2897    3.7492 C   0  0  0  0  0  0  0  0  0  0  0  0
    3.2583   -6.0387    3.7144 C   0  0  1  0  0  0  0  0  0  0  0  0
    2.7376   -6.2246    2.4141 O   0  0  0  0  0  0  0  0  0  0  0  0
    2.3434   -6.7526    4.7857 C   0  0  2  0  0  0  0  0  0  0  0  0
    1.0666   -5.8588    4.8531 C   0  0  0  0  0  0  0  0  0  0  0  0
    2.9600   -6.6178    6.2290 C   0  0  1  0  0  0  0  0  0  0  0  0
    1.9756   -6.7530    7.2421 O   0  0  0  0  0  0  0  0  0  0  0  0
    4.0464   -7.6411    6.5939 C   0  0  0  0  0  0  0  0  0  0  0  0
    3.6988   -9.0849    6.2068 C   0  0  1  0  0  0  0  0  0  0  0  0
    2.7463   -9.6039    7.1183 O   0  0  0  0  0  0  0  0  0  0  0  0
    3.2220   -9.2492    4.7559 C   0  0  2  0  0  0  0  0  0  0  0  0
    2.0021   -8.2945    4.5117 C   0  0  2  0  0  0  0  0  0  0  0  0
    7.0089   -6.2462    2.2167 C   0  0  0  0  0  0  0  0  0  0  0  0
    7.9049   -6.6054    3.3932 C   0  0  0  0  0  0  0  0  0  0  0  0
    7.7557   -5.3181    1.2765 C   0  0  0  0  0  0  0  0  0  0  0  0
   -2.2064   -7.7421    4.0915 H   0  0  0  0  0  0  0  0  0  0  0  0
   -1.0801   -8.8811    5.0151 H   0  0  0  0  0  0  0  0  0  0  0  0
    0.1592   -6.3315    1.9254 H   0  0  0  0  0  0  0  0  0  0  0  0
   -1.5601   -6.6992    2.1063 H   0  0  0  0  0  0  0  0  0  0  0  0
   -0.5331   -7.7326    1.1147 H   0  0  0  0  0  0  0  0  0  0  0  0
    1.5807   -8.4731    2.3533 H   0  0  0  0  0  0  0  0  0  0  0  0
    0.3748  -10.5453    4.2325 H   0  0  0  0  0  0  0  0  0  0  0  0
    0.2569  -10.2453    1.4274 H   0  0  0  0  0  0  0  0  0  0  0  0
    1.9056  -12.1019    3.1783 H   0  0  0  0  0  0  0  0  0  0  0  0
    2.5210  -10.8896    2.1233 H   0  0  0  0  0  0  0  0  0  0  0  0
    4.3587  -11.7191    5.6529 H   0  0  0  0  0  0  0  0  0  0  0  0
    3.7581  -12.7452    4.3629 H   0  0  0  0  0  0  0  0  0  0  0  0
    2.6484  -12.1653    5.6085 H   0  0  0  0  0  0  0  0  0  0  0  0
    5.2469  -10.0204    4.2028 H   0  0  0  0  0  0  0  0  0  0  0  0
    4.4180  -10.0961    1.6597 H   0  0  0  0  0  0  0  0  0  0  0  0
    3.7608   -8.5312    2.0267 H   0  0  0  0  0  0  0  0  0  0  0  0
    6.5808   -8.8385    2.9361 H   0  0  0  0  0  0  0  0  0  0  0  0
    6.4228   -9.2705    1.2875 H   0  0  0  0  0  0  0  0  0  0  0  0
    5.7948   -7.1103    0.5530 H   0  0  0  0  0  0  0  0  0  0  0  0
    5.1163   -5.1927    1.8800 H   0  0  0  0  0  0  0  0  0  0  0  0
    5.0045   -7.3017    4.0584 H   0  0  0  0  0  0  0  0  0  0  0  0
    5.2411   -5.6421    4.5026 H   0  0  0  0  0  0  0  0  0  0  0  0
    3.1621   -4.9614    3.8746 H   0  0  0  0  0  0  0  0  0  0  0  0
    2.8571   -7.1332    2.1789 H   0  0  0  0  0  0  0  0  0  0  0  0
    0.2764   -6.3151    5.4497 H   0  0  0  0  0  0  0  0  0  0  0  0
    0.6579   -5.6251    3.8741 H   0  0  0  0  0  0  0  0  0  0  0  0
    1.2956   -4.8918    5.3122 H   0  0  0  0  0  0  0  0  0  0  0  0
    3.3797   -5.6157    6.3420 H   0  0  0  0  0  0  0  0  0  0  0  0
    1.7274   -7.6703    7.2686 H   0  0  0  0  0  0  0  0  0  0  0  0
    4.9923   -7.3684    6.1423 H   0  0  0  0  0  0  0  0  0  0  0  0
    4.2605   -7.5920    7.6619 H   0  0  0  0  0  0  0  0  0  0  0  0
    4.6137   -9.6562    6.3379 H   0  0  0  0  0  0  0  0  0  0  0  0
    2.6239  -10.5350    6.9577 H   0  0  0  0  0  0  0  0  0  0  0  0
    1.3333   -8.5363    5.3380 H   0  0  0  0  0  0  0  0  0  0  0  0
    8.2806   -5.7009    3.8794 H   0  0  0  0  0  0  0  0  0  0  0  0
    8.7594   -7.1885    3.0416 H   0  0  0  0  0  0  0  0  0  0  0  0
    7.3693   -7.1862    4.1462 H   0  0  0  0  0  0  0  0  0  0  0  0
    8.0749   -4.4125    1.7975 H   0  0  0  0  0  0  0  0  0  0  0  0
    7.1120   -5.0266    0.4452 H   0  0  0  0  0  0  0  0  0  0  0  0
    8.6374   -5.8227    0.8772 H   0  0  0  0  0  0  0  0  0  0  0  0
  1  2  2  0
  1 30  1  0
  1 31  1  0
  2  3  1  0
  2  4  1  0
  3 32  1  0
  3 33  1  0
  3 34  1  0
  4 26  1  0
  4  5  1  0
  4 35  1  6
  5  6  1  0
  5  7  1  0
  5 36  1  1
  6 37  1  0
  7  8  1  0
  7 38  1  0
  7 39  1  0
 25  8  1  1
  8  9  1  1
  8 10  1  0
  9 40  1  0
  9 41  1  0
  9 42  1  0
 10 25  1  0
 10 11  1  0
 10 43  1  1
 11 12  1  0
 11 44  1  0
 11 45  1  0
 12 13  1  0
 12 46  1  0
 12 47  1  0
 13 27  1  0
 13 14  1  0
 13 48  1  6
 14 15  1  0
 14 27  1  0
 14 49  1  6
 15 16  1  0
 15 50  1  0
 15 51  1  0
 16 17  1  0
 16 18  1  0
 16 52  1  1
 17 53  1  0
 18 26  1  0
 18 19  1  1
 18 20  1  0
 19 54  1  0
 19 55  1  0
 19 56  1  0
 20 21  1  0
 20 22  1  0
 20 57  1  6
 21 58  1  0
 22 23  1  0
 22 59  1  0
 22 60  1  0
 23 24  1  0
 23 25  1  0
 23 61  1  6
 24 62  1  0
 25 26  1  0
 26 63  1  1
 27 28  1  0
 27 29  1  0
 28 64  1  0
 28 65  1  0
 28 66  1  0
 29 67  1  0
 29 68  1  0
 29 69  1  0
M  END
>  <i_m_ct_stereo_status>  (380) 
1

>  <s_m_source_file>  (380) 
/var/tmp/pbs.5076255.sched01/tmpay8aiv4m/132fzfu5vr2.sdf

>  <i_m_source_file_index>  (380) 
43

>  <i_lp_mmshare_version>  (380) 
48012

>  <i_f3d_flags>  (380) 
0

>  <s_epik_input>  (380) 
W0NIMl09QyhbQ0gzXSlbQ0BIXShbQ0BASF0oW09IXSlbQ0gyXTEpW0NAQEhdMltDQEBdKFtDSDNdKShbQ0BASF0oW09IXSlbQ0gyXVtDQEhdM1tPSF0pW0NASF0oW09IXSlbQ0gyXVtDQEBIXShDNChbQ0gzXSlbQ0gzXSlbQ0BASF00W0NIMl1bQ0gyXVtDQEBIXTVbQ0BdMShbQ0BAXTIzNSlbQ0gzXQ==

>  <s_epik_cmdline>  (380) 
J2VwaWtfcHl0aG9uJywgJy1waHQnLCAnMi4wJywgJy1waCcsICc3LjAnLCAnLXRuJywgJzgnLCAnLW1hJywgJzIwMCcsICctaW1hZScsICc8aW5maWxlLm1hZT4nLCAnLW9tYWUnLCAnPG91dGZpbGUubWFlPic=

>  <r_lp_tautomer_probability>  (380) 
1

>  <r_epik_Ionization_Penalty>  (380) 
2.81534e-06

>  <r_epik_Ionization_Penalty_Charging>  (380) 
0

>  <r_epik_Ionization_Penalty_Neutral>  (380) 
2.81534e-06

>  <r_epik_State_Penalty>  (380) 
-0

>  <r_epik_Charging_Adjusted_Penalty>  (380) 
0

>  <i_epik_Tot_Q>  (380) 
0

>  <i_epik_Tot_abs_Q>  (380) 
0

>  <s_lp_Force_Field>  (380) 
OPLS3e

>  <r_lp_Energy>  (380) 
85.6507

>  <b_lp_Chiralities_Consistent>  (380) 
1

>  <s_lp_Variant>  (380) 
111:0-1

>  <s_i_glide_gridfile>  (380) 
pfpi4k_grid

>  <i_i_glide_lignum>  (380) 
43

>  <i_i_glide_rotatable_bonds>  (380) 
5

>  <r_i_docking_score>  (380) 
-3.73584

>  <r_i_glide_ligand_efficiency>  (380) 
-0.128822

>  <r_i_glide_ligand_efficiency_sa>  (380) 
-0.395782

>  <r_i_glide_ligand_efficiency_ln>  (380) 
-0.855413

>  <r_i_glide_gscore>  (380) 
-3.73584

>  <r_i_glide_lipo>  (380) 
-0.428327

>  <r_i_glide_hbond>  (380) 
-0.32

>  <r_i_glide_metal>  (380) 
-0

>  <r_i_glide_rewards>  (380) 
-1.15057

>  <r_i_glide_evdw>  (380) 
-23.401

>  <r_i_glide_ecoul>  (380) 
-5.24602

>  <r_i_glide_erotb>  (380) 
0.120012

>  <r_i_glide_esite>  (380) 
0

>  <r_i_glide_emodel>  (380) 
-39.5119

>  <r_i_glide_energy>  (380) 
-28.647

>  <r_i_glide_einternal>  (380) 
2.4509

>  <r_i_glide_intrahb_reward>  (380) 
-0.5

>  <i_i_glide_confnum>  (380) 
3

>  <i_i_glide_posenum>  (380) 
12

>  <r_i_glide_eff_state_penalty>  (380) 
0

>  <ligand_id>  (380) 
111

>  <original_smiles>  (380) 
C=C(C)C1C(O)CC2(C)C3CCC4C(CC(O)C5(C)C(O)CC(O)C32C15)C4(C)C

>  <smiles>  (380) 
[H]OC1([H])C([H])([H])C2(C([H])([H])[H])C3([H])C([H])([H])C([H])([H])C4([H])C([H])(C([H])([H])C([H])(O[H])C5(C([H])([H])[H])C([H])(O[H])C([H])([H])C([H])(O[H])C32C5([H])C1([H])C(=C([H])[H])C([H])([H])[H])C4(C([H])([H])[H])C([H])([H])[H]

$$$$
111:0:1
     RDKit          3D

 69 73  0  0  1  0  0  0  0  0999 V2000
    3.1462   -2.6918   -0.9574 C   0  0  0  0  0  0  0  0  0  0  0  0
    3.8154   -2.6055    0.2067 C   0  0  0  0  0  0  0  0  0  0  0  0
    5.2212   -2.0096    0.2545 C   0  0  0  0  0  0  0  0  0  0  0  0
    3.1921   -3.0588    1.5384 C   0  0  2  0  0  0  0  0  0  0  0  0
    3.0445   -1.7999    2.4329 C   0  0  1  0  0  0  0  0  0  0  0  0
    2.3940   -0.7332    1.7583 O   0  0  0  0  0  0  0  0  0  0  0  0
    2.2707   -2.0723    3.7162 C   0  0  0  0  0  0  0  0  0  0  0  0
    2.8487   -3.2363    4.5151 C   0  0  1  0  0  0  0  0  0  0  0  0
    3.3131   -2.7499    5.8839 C   0  0  0  0  0  0  0  0  0  0  0  0
    2.1875   -4.6062    4.4222 C   0  0  1  0  0  0  0  0  0  0  0  0
    0.8760   -4.8400    3.6806 C   0  0  0  0  0  0  0  0  0  0  0  0
    0.1474   -6.1501    4.0785 C   0  0  0  0  0  0  0  0  0  0  0  0
   -0.1048   -7.1310    2.9360 C   0  0  1  0  0  0  0  0  0  0  0  0
    0.9933   -7.7903    2.1210 C   0  0  1  0  0  0  0  0  0  0  0  0
    2.4412   -7.3704    2.3420 C   0  0  0  0  0  0  0  0  0  0  0  0
    3.0524   -6.5010    1.2101 C   0  0  1  0  0  0  0  0  0  0  0  0
    2.0518   -5.7784    0.5057 O   0  0  0  0  0  0  0  0  0  0  0  0
    4.2945   -5.5920    1.5395 C   0  0  2  0  0  0  0  0  0  0  0  0
    4.9749   -5.4060    0.1459 C   0  0  0  0  0  0  0  0  0  0  0  0
    5.3713   -6.3765    2.3816 C   0  0  1  0  0  0  0  0  0  0  0  0
    6.6589   -5.7921    2.2577 O   0  0  0  0  0  0  0  0  0  0  0  0
    5.1241   -6.4614    3.8958 C   0  0  0  0  0  0  0  0  0  0  0  0
    4.7008   -5.1332    4.5398 C   0  0  1  0  0  0  0  0  0  0  0  0
    5.8111   -4.2864    4.7057 O   0  0  0  0  0  0  0  0  0  0  0  0
    3.5737   -4.3991    3.7952 C   0  0  2  0  0  0  0  0  0  0  0  0
    3.9700   -4.2110    2.2920 C   0  0  2  0  0  0  0  0  0  0  0  0
    0.1793   -8.6128    3.1014 C   0  0  0  0  0  0  0  0  0  0  0  0
    0.8377   -9.1897    4.3465 C   0  0  0  0  0  0  0  0  0  0  0  0
   -0.8393   -9.5940    2.5576 C   0  0  0  0  0  0  0  0  0  0  0  0
    3.5969   -2.3617   -1.8836 H   0  0  0  0  0  0  0  0  0  0  0  0
    2.1371   -3.0787   -1.0232 H   0  0  0  0  0  0  0  0  0  0  0  0
    5.2318   -1.0952    0.8444 H   0  0  0  0  0  0  0  0  0  0  0  0
    5.5598   -1.7426   -0.7459 H   0  0  0  0  0  0  0  0  0  0  0  0
    5.9619   -2.6846    0.6816 H   0  0  0  0  0  0  0  0  0  0  0  0
    2.1838   -3.3967    1.3150 H   0  0  0  0  0  0  0  0  0  0  0  0
    4.0352   -1.4495    2.7284 H   0  0  0  0  0  0  0  0  0  0  0  0
    1.8295   -1.0715    1.0685 H   0  0  0  0  0  0  0  0  0  0  0  0
    2.2694   -1.1701    4.3319 H   0  0  0  0  0  0  0  0  0  0  0  0
    1.2253   -2.2429    3.4774 H   0  0  0  0  0  0  0  0  0  0  0  0
    3.5937   -3.5783    6.5309 H   0  0  0  0  0  0  0  0  0  0  0  0
    2.5255   -2.1963    6.3948 H   0  0  0  0  0  0  0  0  0  0  0  0
    4.1814   -2.1016    5.7730 H   0  0  0  0  0  0  0  0  0  0  0  0
    2.1704   -5.1173    5.3783 H   0  0  0  0  0  0  0  0  0  0  0  0
    0.2071   -4.0255    3.9458 H   0  0  0  0  0  0  0  0  0  0  0  0
    1.0313   -4.7786    2.6093 H   0  0  0  0  0  0  0  0  0  0  0  0
    0.6558   -6.6371    4.9061 H   0  0  0  0  0  0  0  0  0  0  0  0
   -0.8298   -5.8909    4.4879 H   0  0  0  0  0  0  0  0  0  0  0  0
   -0.9962   -6.8882    2.3611 H   0  0  0  0  0  0  0  0  0  0  0  0
    0.7715   -8.0136    1.0800 H   0  0  0  0  0  0  0  0  0  0  0  0
    2.4962   -6.8593    3.2908 H   0  0  0  0  0  0  0  0  0  0  0  0
    3.0318   -8.2810    2.4565 H   0  0  0  0  0  0  0  0  0  0  0  0
    3.3987   -7.2437    0.4835 H   0  0  0  0  0  0  0  0  0  0  0  0
    2.4516   -5.4557   -0.2933 H   0  0  0  0  0  0  0  0  0  0  0  0
    5.8309   -4.7370    0.1705 H   0  0  0  0  0  0  0  0  0  0  0  0
    4.2924   -5.0504   -0.6220 H   0  0  0  0  0  0  0  0  0  0  0  0
    5.3507   -6.3587   -0.2348 H   0  0  0  0  0  0  0  0  0  0  0  0
    5.4572   -7.3926    1.9841 H   0  0  0  0  0  0  0  0  0  0  0  0
    7.2886   -6.3740    2.6601 H   0  0  0  0  0  0  0  0  0  0  0  0
    4.3798   -7.2151    4.1131 H   0  0  0  0  0  0  0  0  0  0  0  0
    6.0132   -6.8413    4.4031 H   0  0  0  0  0  0  0  0  0  0  0  0
    4.3636   -5.3812    5.5413 H   0  0  0  0  0  0  0  0  0  0  0  0
    6.1761   -4.1120    3.8483 H   0  0  0  0  0  0  0  0  0  0  0  0
    4.9540   -3.7551    2.3712 H   0  0  0  0  0  0  0  0  0  0  0  0
    1.2571  -10.1756    4.1373 H   0  0  0  0  0  0  0  0  0  0  0  0
    0.0991   -9.2911    5.1434 H   0  0  0  0  0  0  0  0  0  0  0  0
    1.6521   -8.5565    4.7006 H   0  0  0  0  0  0  0  0  0  0  0  0
   -0.3633  -10.5453    2.3167 H   0  0  0  0  0  0  0  0  0  0  0  0
   -1.3146   -9.2040    1.6611 H   0  0  0  0  0  0  0  0  0  0  0  0
   -1.6228   -9.7756    3.2888 H   0  0  0  0  0  0  0  0  0  0  0  0
  1  2  2  0
  1 30  1  0
  1 31  1  0
  2  3  1  0
  2  4  1  0
  3 32  1  0
  3 33  1  0
  3 34  1  0
  4 26  1  0
  4  5  1  0
  4 35  1  6
  5  6  1  0
  5  7  1  0
  5 36  1  1
  6 37  1  0
  7  8  1  0
  7 38  1  0
  7 39  1  0
 25  8  1  1
  8  9  1  1
  8 10  1  0
  9 40  1  0
  9 41  1  0
  9 42  1  0
 10 25  1  0
 10 11  1  0
 10 43  1  1
 11 12  1  0
 11 44  1  0
 11 45  1  0
 12 13  1  0
 12 46  1  0
 12 47  1  0
 13 27  1  0
 13 14  1  0
 13 48  1  6
 14 15  1  0
 14 27  1  0
 14 49  1  6
 15 16  1  0
 15 50  1  0
 15 51  1  0
 16 17  1  0
 16 18  1  0
 16 52  1  6
 17 53  1  0
 18 26  1  0
 18 19  1  6
 18 20  1  0
 19 54  1  0
 19 55  1  0
 19 56  1  0
 20 21  1  0
 20 22  1  0
 20 57  1  6
 21 58  1  0
 22 23  1  0
 22 59  1  0
 22 60  1  0
 23 24  1  0
 23 25  1  0
 23 61  1  1
 24 62  1  0
 25 26  1  0
 26 63  1  1
 27 28  1  0
 27 29  1  0
 28 64  1  0
 28 65  1  0
 28 66  1  0
 29 67  1  0
 29 68  1  0
 29 69  1  0
M  END
>  <i_m_ct_stereo_status>  (381) 
1

>  <s_m_source_file>  (381) 
/var/tmp/pbs.5076255.sched01/tmpay8aiv4m/132fzfu5vr2.sdf

>  <i_m_source_file_index>  (381) 
43

>  <i_lp_mmshare_version>  (381) 
48012

>  <i_f3d_flags>  (381) 
0

>  <s_epik_input>  (381) 
W0NIMl09QyhbQ0gzXSlbQ0BIXShbQ0BASF0oW09IXSlbQ0gyXTEpW0NAQEhdMltDQEBdKFtDSDNdKShbQ0BASF0oW09IXSlbQ0gyXVtDQEhdM1tPSF0pW0NASF0oW09IXSlbQ0gyXVtDQEBIXShDNChbQ0gzXSlbQ0gzXSlbQ0BASF00W0NIMl1bQ0gyXVtDQEBIXTVbQ0BdMShbQ0BAXTIzNSlbQ0gzXQ==

>  <s_epik_cmdline>  (381) 
J2VwaWtfcHl0aG9uJywgJy1waHQnLCAnMi4wJywgJy1waCcsICc3LjAnLCAnLXRuJywgJzgnLCAnLW1hJywgJzIwMCcsICctaW1hZScsICc8aW5maWxlLm1hZT4nLCAnLW9tYWUnLCAnPG91dGZpbGUubWFlPic=

>  <r_lp_tautomer_probability>  (381) 
1

>  <r_epik_Ionization_Penalty>  (381) 
2.81534e-06

>  <r_epik_Ionization_Penalty_Charging>  (381) 
0

>  <r_epik_Ionization_Penalty_Neutral>  (381) 
2.81534e-06

>  <r_epik_State_Penalty>  (381) 
-0

>  <r_epik_Charging_Adjusted_Penalty>  (381) 
0

>  <i_epik_Tot_Q>  (381) 
0

>  <i_epik_Tot_abs_Q>  (381) 
0

>  <s_lp_Force_Field>  (381) 
OPLS3e

>  <r_lp_Energy>  (381) 
85.6507

>  <b_lp_Chiralities_Consistent>  (381) 
1

>  <s_lp_Variant>  (381) 
111:0-1

>  <s_i_glide_gridfile>  (381) 
pfpi4k_grid

>  <i_i_glide_lignum>  (381) 
43

>  <i_i_glide_rotatable_bonds>  (381) 
5

>  <r_i_docking_score>  (381) 
-3.35758

>  <r_i_glide_ligand_efficiency>  (381) 
-0.115779

>  <r_i_glide_ligand_efficiency_sa>  (381) 
-0.355709

>  <r_i_glide_ligand_efficiency_ln>  (381) 
-0.768802

>  <r_i_glide_gscore>  (381) 
-3.35758

>  <r_i_glide_lipo>  (381) 
-0.253193

>  <r_i_glide_hbond>  (381) 
-0.116672

>  <r_i_glide_metal>  (381) 
-0

>  <r_i_glide_rewards>  (381) 
-1.15057

>  <r_i_glide_evdw>  (381) 
-25.2944

>  <r_i_glide_ecoul>  (381) 
-4.61626

>  <r_i_glide_erotb>  (381) 
0.120012

>  <r_i_glide_esite>  (381) 
0

>  <r_i_glide_emodel>  (381) 
-40.1735

>  <r_i_glide_energy>  (381) 
-29.9107

>  <r_i_glide_einternal>  (381) 
1.58366

>  <r_i_glide_intrahb_reward>  (381) 
-0.5

>  <i_i_glide_confnum>  (381) 
4

>  <i_i_glide_posenum>  (381) 
1

>  <r_i_glide_eff_state_penalty>  (381) 
0

>  <ligand_id>  (381) 
111

>  <original_smiles>  (381) 
C=C(C)C1C(O)CC2(C)C3CCC4C(CC(O)C5(C)C(O)CC(O)C32C15)C4(C)C

>  <smiles>  (381) 
[H]OC1([H])C([H])([H])C2(C([H])([H])[H])C3([H])C([H])([H])C([H])([H])C4([H])C([H])(C([H])([H])C([H])(O[H])C5(C([H])([H])[H])C([H])(O[H])C([H])([H])C([H])(O[H])C32C5([H])C1([H])C(=C([H])[H])C([H])([H])[H])C4(C([H])([H])[H])C([H])([H])[H]

$$$$
111:0:2
     RDKit          3D

 69 73  0  0  1  0  0  0  0  0999 V2000
    4.8580   -1.7483    0.1739 C   0  0  0  0  0  0  0  0  0  0  0  0
    3.8250   -2.5959    0.2363 C   0  0  0  0  0  0  0  0  0  0  0  0
    3.1124   -3.0753   -1.0513 C   0  0  0  0  0  0  0  0  0  0  0  0
    3.2188   -3.0668    1.5818 C   0  0  2  0  0  0  0  0  0  0  0  0
    3.0911   -1.8237    2.5173 C   0  0  1  0  0  0  0  0  0  0  0  0
    2.4354   -0.7354    1.8694 O   0  0  0  0  0  0  0  0  0  0  0  0
    2.3071   -2.1004    3.7944 C   0  0  0  0  0  0  0  0  0  0  0  0
    2.8645   -3.2833    4.5780 C   0  0  1  0  0  0  0  0  0  0  0  0
    3.3348   -2.8220    5.9614 C   0  0  0  0  0  0  0  0  0  0  0  0
    2.1864   -4.6402    4.4506 C   0  0  1  0  0  0  0  0  0  0  0  0
    0.8812   -4.8456    3.6938 C   0  0  0  0  0  0  0  0  0  0  0  0
    0.1237   -6.1477    4.0723 C   0  0  0  0  0  0  0  0  0  0  0  0
   -0.1341   -7.1165    2.9162 C   0  0  1  0  0  0  0  0  0  0  0  0
    0.9634   -7.7781    2.1011 C   0  0  1  0  0  0  0  0  0  0  0  0
    2.4172   -7.3813    2.3318 C   0  0  0  0  0  0  0  0  0  0  0  0
    3.0650   -6.5096    1.2252 C   0  0  1  0  0  0  0  0  0  0  0  0
    2.0684   -5.7711    0.5379 O   0  0  0  0  0  0  0  0  0  0  0  0
    4.3243   -5.6173    1.5731 C   0  0  2  0  0  0  0  0  0  0  0  0
    5.0738   -5.4106    0.1940 C   0  0  0  0  0  0  0  0  0  0  0  0
    5.3676   -6.4326    2.4212 C   0  0  1  0  0  0  0  0  0  0  0  0
    6.6806   -5.8935    2.3162 O   0  0  0  0  0  0  0  0  0  0  0  0
    5.1106   -6.5314    3.9333 C   0  0  0  0  0  0  0  0  0  0  0  0
    4.6966   -5.1949    4.5807 C   0  0  1  0  0  0  0  0  0  0  0  0
    5.8060   -4.3584    4.7915 O   0  0  0  0  0  0  0  0  0  0  0  0
    3.5866   -4.4394    3.8398 C   0  0  2  0  0  0  0  0  0  0  0  0
    3.9984   -4.2374    2.3247 C   0  0  2  0  0  0  0  0  0  0  0  0
    0.1316   -8.6083    3.0619 C   0  0  0  0  0  0  0  0  0  0  0  0
    0.7745   -9.2020    4.3094 C   0  0  0  0  0  0  0  0  0  0  0  0
   -0.9067   -9.5661    2.4979 C   0  0  0  0  0  0  0  0  0  0  0  0
    5.2484   -1.3961   -0.7718 H   0  0  0  0  0  0  0  0  0  0  0  0
    5.3443   -1.3324    1.0518 H   0  0  0  0  0  0  0  0  0  0  0  0
    2.9575   -4.1233   -1.1542 H   0  0  0  0  0  0  0  0  0  0  0  0
    3.6828   -2.7257   -1.9254 H   0  0  0  0  0  0  0  0  0  0  0  0
    2.1219   -2.6325   -1.1005 H   0  0  0  0  0  0  0  0  0  0  0  0
    2.2066   -3.3732    1.3610 H   0  0  0  0  0  0  0  0  0  0  0  0
    4.0770   -1.4759    2.8275 H   0  0  0  0  0  0  0  0  0  0  0  0
    1.8942   -1.0430    1.1525 H   0  0  0  0  0  0  0  0  0  0  0  0
    2.3079   -1.2017    4.4191 H   0  0  0  0  0  0  0  0  0  0  0  0
    1.2674   -2.2669    3.5307 H   0  0  0  0  0  0  0  0  0  0  0  0
    3.6011   -3.6633    6.5957 H   0  0  0  0  0  0  0  0  0  0  0  0
    2.5515   -2.2674    6.4805 H   0  0  0  0  0  0  0  0  0  0  0  0
    4.2188   -2.1885    5.8720 H   0  0  0  0  0  0  0  0  0  0  0  0
    2.1602   -5.1752    5.3987 H   0  0  0  0  0  0  0  0  0  0  0  0
    0.2161   -4.0260    3.9652 H   0  0  0  0  0  0  0  0  0  0  0  0
    1.0467   -4.7687    2.6217 H   0  0  0  0  0  0  0  0  0  0  0  0
    0.6171   -6.6590    4.8960 H   0  0  0  0  0  0  0  0  0  0  0  0
   -0.8552   -5.8759    4.4737 H   0  0  0  0  0  0  0  0  0  0  0  0
   -1.0263   -6.8707    2.3488 H   0  0  0  0  0  0  0  0  0  0  0  0
    0.7424   -7.9877    1.0584 H   0  0  0  0  0  0  0  0  0  0  0  0
    2.4650   -6.8827    3.2871 H   0  0  0  0  0  0  0  0  0  0  0  0
    2.9946   -8.2997    2.4497 H   0  0  0  0  0  0  0  0  0  0  0  0
    3.4008   -7.2341    0.4850 H   0  0  0  0  0  0  0  0  0  0  0  0
    2.4458   -5.4561   -0.2690 H   0  0  0  0  0  0  0  0  0  0  0  0
    5.8764   -4.6579    0.3058 H   0  0  0  0  0  0  0  0  0  0  0  0
    4.4753   -5.1873   -0.6289 H   0  0  0  0  0  0  0  0  0  0  0  0
    5.5644   -6.3522   -0.0792 H   0  0  0  0  0  0  0  0  0  0  0  0
    5.4319   -7.4429    2.0127 H   0  0  0  0  0  0  0  0  0  0  0  0
    7.2959   -6.4869    2.7208 H   0  0  0  0  0  0  0  0  0  0  0  0
    4.3414   -7.2767    4.1246 H   0  0  0  0  0  0  0  0  0  0  0  0
    5.9917   -6.9437    4.4409 H   0  0  0  0  0  0  0  0  0  0  0  0
    4.3538   -5.4620    5.5801 H   0  0  0  0  0  0  0  0  0  0  0  0
    6.4510   -4.8346    5.2725 H   0  0  0  0  0  0  0  0  0  0  0  0
    4.9856   -3.7824    2.4218 H   0  0  0  0  0  0  0  0  0  0  0  0
    1.1917  -10.1865    4.0962 H   0  0  0  0  0  0  0  0  0  0  0  0
    0.0377   -9.3056    5.1081 H   0  0  0  0  0  0  0  0  0  0  0  0
    1.5881   -8.5799    4.6699 H   0  0  0  0  0  0  0  0  0  0  0  0
   -0.4499  -10.5222    2.2453 H   0  0  0  0  0  0  0  0  0  0  0  0
   -1.3694   -9.1673    1.5950 H   0  0  0  0  0  0  0  0  0  0  0  0
   -1.7017   -9.7506    3.2198 H   0  0  0  0  0  0  0  0  0  0  0  0
  1  2  2  0
  1 30  1  0
  1 31  1  0
  2  3  1  0
  2  4  1  0
  3 32  1  0
  3 33  1  0
  3 34  1  0
  4 26  1  0
  4  5  1  0
  4 35  1  6
  5  6  1  0
  5  7  1  0
  5 36  1  1
  6 37  1  0
  7  8  1  0
  7 38  1  0
  7 39  1  0
 25  8  1  1
  8  9  1  1
  8 10  1  0
  9 40  1  0
  9 41  1  0
  9 42  1  0
 10 25  1  0
 10 11  1  0
 10 43  1  1
 11 12  1  0
 11 44  1  0
 11 45  1  0
 12 13  1  0
 12 46  1  0
 12 47  1  0
 13 27  1  0
 13 14  1  0
 13 48  1  6
 14 15  1  0
 14 27  1  0
 14 49  1  6
 15 16  1  0
 15 50  1  0
 15 51  1  0
 16 17  1  0
 16 18  1  0
 16 52  1  6
 17 53  1  0
 18 26  1  0
 18 19  1  6
 18 20  1  0
 19 54  1  0
 19 55  1  0
 19 56  1  0
 20 21  1  0
 20 22  1  0
 20 57  1  6
 21 58  1  0
 22 23  1  0
 22 59  1  0
 22 60  1  0
 23 24  1  0
 23 25  1  0
 23 61  1  1
 24 62  1  0
 25 26  1  0
 26 63  1  1
 27 28  1  0
 27 29  1  0
 28 64  1  0
 28 65  1  0
 28 66  1  0
 29 67  1  0
 29 68  1  0
 29 69  1  0
M  END
>  <i_m_ct_stereo_status>  (382) 
1

>  <s_m_source_file>  (382) 
/var/tmp/pbs.5076255.sched01/tmpay8aiv4m/132fzfu5vr2.sdf

>  <i_m_source_file_index>  (382) 
43

>  <i_lp_mmshare_version>  (382) 
48012

>  <i_f3d_flags>  (382) 
0

>  <s_epik_input>  (382) 
W0NIMl09QyhbQ0gzXSlbQ0BIXShbQ0BASF0oW09IXSlbQ0gyXTEpW0NAQEhdMltDQEBdKFtDSDNdKShbQ0BASF0oW09IXSlbQ0gyXVtDQEhdM1tPSF0pW0NASF0oW09IXSlbQ0gyXVtDQEBIXShDNChbQ0gzXSlbQ0gzXSlbQ0BASF00W0NIMl1bQ0gyXVtDQEBIXTVbQ0BdMShbQ0BAXTIzNSlbQ0gzXQ==

>  <s_epik_cmdline>  (382) 
J2VwaWtfcHl0aG9uJywgJy1waHQnLCAnMi4wJywgJy1waCcsICc3LjAnLCAnLXRuJywgJzgnLCAnLW1hJywgJzIwMCcsICctaW1hZScsICc8aW5maWxlLm1hZT4nLCAnLW9tYWUnLCAnPG91dGZpbGUubWFlPic=

>  <r_lp_tautomer_probability>  (382) 
1

>  <r_epik_Ionization_Penalty>  (382) 
2.81534e-06

>  <r_epik_Ionization_Penalty_Charging>  (382) 
0

>  <r_epik_Ionization_Penalty_Neutral>  (382) 
2.81534e-06

>  <r_epik_State_Penalty>  (382) 
-0

>  <r_epik_Charging_Adjusted_Penalty>  (382) 
0

>  <i_epik_Tot_Q>  (382) 
0

>  <i_epik_Tot_abs_Q>  (382) 
0

>  <s_lp_Force_Field>  (382) 
OPLS3e

>  <r_lp_Energy>  (382) 
85.6507

>  <b_lp_Chiralities_Consistent>  (382) 
1

>  <s_lp_Variant>  (382) 
111:0-1

>  <s_i_glide_gridfile>  (382) 
pfpi4k_grid

>  <i_i_glide_lignum>  (382) 
43

>  <i_i_glide_rotatable_bonds>  (382) 
5

>  <r_i_docking_score>  (382) 
-2.81524

>  <r_i_glide_ligand_efficiency>  (382) 
-0.0970774

>  <r_i_glide_ligand_efficiency_sa>  (382) 
-0.298252

>  <r_i_glide_ligand_efficiency_ln>  (382) 
-0.644619

>  <r_i_glide_gscore>  (382) 
-2.81524

>  <r_i_glide_lipo>  (382) 
-0.292586

>  <r_i_glide_hbond>  (382) 
-0.0722536

>  <r_i_glide_metal>  (382) 
-0

>  <r_i_glide_rewards>  (382) 
-0.650572

>  <r_i_glide_evdw>  (382) 
-24.8621

>  <r_i_glide_ecoul>  (382) 
-4.51159

>  <r_i_glide_erotb>  (382) 
0.120012

>  <r_i_glide_esite>  (382) 
0

>  <r_i_glide_emodel>  (382) 
-30.7497

>  <r_i_glide_energy>  (382) 
-29.3737

>  <r_i_glide_einternal>  (382) 
4.18156

>  <r_i_glide_intrahb_reward>  (382) 
-0

>  <i_i_glide_confnum>  (382) 
4

>  <i_i_glide_posenum>  (382) 
31

>  <r_i_glide_eff_state_penalty>  (382) 
0

>  <ligand_id>  (382) 
111

>  <original_smiles>  (382) 
C=C(C)C1C(O)CC2(C)C3CCC4C(CC(O)C5(C)C(O)CC(O)C32C15)C4(C)C

>  <smiles>  (382) 
[H]OC1([H])C([H])([H])C2(C([H])([H])[H])C3([H])C([H])([H])C([H])([H])C4([H])C([H])(C([H])([H])C([H])(O[H])C5(C([H])([H])[H])C([H])(O[H])C([H])([H])C([H])(O[H])C32C5([H])C1([H])C(=C([H])[H])C([H])([H])[H])C4(C([H])([H])[H])C([H])([H])[H]

$$$$
