0:0:0
     RDKit          3D

 29 30  0  0  1  0  0  0  0  0999 V2000
    2.5563   -3.4873   -1.4426 C   0  0  0  0  0  0  0  0  0  0  0  0
    2.8015   -3.5255    0.0730 C   0  0  2  0  0  0  0  0  0  0  0  0
    3.8031   -2.4462    0.5242 C   0  0  0  0  0  0  0  0  0  0  0  0
    5.2406   -2.6959    0.0856 C   0  0  0  0  0  0  0  0  0  0  0  0
    6.1065   -3.5131    0.8412 C   0  0  0  0  0  0  0  0  0  0  0  0
    7.4261   -3.7050    0.3884 C   0  0  0  0  0  0  0  0  0  0  0  0
    7.8306   -3.0569   -0.7955 C   0  0  0  0  0  0  0  0  0  0  0  0
    7.0154   -2.2585   -1.5140 N   0  0  0  0  0  0  0  0  0  0  0  0
    5.7459   -2.0954   -1.0850 C   0  0  0  0  0  0  0  0  0  0  0  0
    3.2512   -4.8566    0.4794 N   0  0  0  0  0  0  0  0  0  0  0  0
    2.4804   -5.8801    0.8679 C   0  0  0  0  0  0  0  0  0  0  0  0
    1.2455   -5.8562    0.8810 O   0  0  0  0  0  0  0  0  0  0  0  0
    3.2191   -7.0974    1.2991 C   0  0  0  0  0  0  0  0  0  0  0  0
    4.5265   -7.4002    1.2087 N   0  0  0  0  0  0  0  0  0  0  0  0
    4.6615   -8.6677    1.7421 N   0  0  0  0  0  0  0  0  0  0  0  0
    3.4280   -9.0249    2.0958 C   0  0  0  0  0  0  0  0  0  0  0  0
    3.0416  -10.6691    2.9683 Br  0  0  0  0  0  0  0  0  0  0  0  0
    2.4738   -8.0933    1.8532 O   0  0  0  0  0  0  0  0  0  0  0  0
    2.2327   -2.4971   -1.7694 H   0  0  0  0  0  0  0  0  0  0  0  0
    1.7830   -4.1974   -1.7339 H   0  0  0  0  0  0  0  0  0  0  0  0
    3.4560   -3.7511   -2.0016 H   0  0  0  0  0  0  0  0  0  0  0  0
    1.8588   -3.3033    0.5743 H   0  0  0  0  0  0  0  0  0  0  0  0
    3.4733   -1.4697    0.1624 H   0  0  0  0  0  0  0  0  0  0  0  0
    3.7926   -2.3763    1.6120 H   0  0  0  0  0  0  0  0  0  0  0  0
    5.7597   -3.9945    1.7472 H   0  0  0  0  0  0  0  0  0  0  0  0
    8.1095   -4.3325    0.9383 H   0  0  0  0  0  0  0  0  0  0  0  0
    8.8349   -3.1729   -1.1711 H   0  0  0  0  0  0  0  0  0  0  0  0
    5.1254   -1.4480   -1.6891 H   0  0  0  0  0  0  0  0  0  0  0  0
    4.2463   -5.0261    0.4594 H   0  0  0  0  0  0  0  0  0  0  0  0
  1  2  1  0
  1 19  1  0
  1 20  1  0
  1 21  1  0
  2  3  1  0
  2 10  1  0
  2 22  1  1
  3  4  1  0
  3 23  1  0
  3 24  1  0
  4  9  1  0
  4  5  2  0
  5  6  1  0
  5 25  1  0
  6  7  2  0
  6 26  1  0
  7  8  1  0
  7 27  1  0
  8  9  2  0
  9 28  1  0
 10 11  1  0
 10 29  1  0
 11 12  2  0
 11 13  1  0
 13 18  1  0
 13 14  2  0
 14 15  1  0
 15 16  2  0
 16 17  1  0
 16 18  1  0
M  END
>  <i_m_ct_stereo_status>  (1) 
1

>  <s_m_source_file>  (1) 
/var/tmp/pbs.5076255.sched01/tmpgn4o3w3f/0whq8s7pj.sdf

>  <i_m_source_file_index>  (1) 
1

>  <i_lp_mmshare_version>  (1) 
48012

>  <i_f3d_flags>  (1) 
0

>  <s_epik_input>  (1) 
QnJjKG8xKW5uYzFDKD1PKVtOSF1bQ0BIXShbQ0gzXSlbQ0gyXWMyW2NIXVtjSF1bY0hdbltjSF0y

>  <s_epik_cmdline>  (1) 
J2VwaWtfcHl0aG9uJywgJy1waHQnLCAnMi4wJywgJy1waCcsICc3LjAnLCAnLXRuJywgJzgnLCAnLW1hJywgJzIwMCcsICctaW1hZScsICc8aW5maWxlLm1hZT4nLCAnLW9tYWUnLCAnPG91dGZpbGUubWFlPic=

>  <r_lp_tautomer_probability>  (1) 
1

>  <r_epik_Ionization_Penalty>  (1) 
0.0107673

>  <r_epik_Ionization_Penalty_Charging>  (1) 
0

>  <r_epik_Ionization_Penalty_Neutral>  (1) 
0.0107673

>  <r_epik_State_Penalty>  (1) 
0.00816526

>  <r_epik_Charging_Adjusted_Penalty>  (1) 
0.00816526

>  <i_epik_Tot_Q>  (1) 
0

>  <i_epik_Tot_abs_Q>  (1) 
0

>  <s_lp_Force_Field>  (1) 
OPLS3e

>  <r_lp_Energy>  (1) 
17.6887

>  <b_lp_Chiralities_Consistent>  (1) 
1

>  <s_lp_Variant>  (1) 
0:0-1

>  <s_i_glide_gridfile>  (1) 
pfpi4k_grid

>  <i_i_glide_lignum>  (1) 
1

>  <i_i_glide_rotatable_bonds>  (1) 
5

>  <r_i_docking_score>  (1) 
-3.76562

>  <r_i_glide_ligand_efficiency>  (1) 
-0.209201

>  <r_i_glide_ligand_efficiency_sa>  (1) 
-0.548262

>  <r_i_glide_ligand_efficiency_ln>  (1) 
-0.967934

>  <r_i_glide_gscore>  (1) 
-3.76562

>  <r_i_glide_lipo>  (1) 
-0.447397

>  <r_i_glide_hbond>  (1) 
-0.32

>  <r_i_glide_metal>  (1) 
-0

>  <r_i_glide_rewards>  (1) 
-1.28772

>  <r_i_glide_evdw>  (1) 
-22.5339

>  <r_i_glide_ecoul>  (1) 
-7.33494

>  <r_i_glide_erotb>  (1) 
0.574586

>  <r_i_glide_esite>  (1) 
-0.0581581

>  <r_i_glide_emodel>  (1) 
-37.9083

>  <r_i_glide_energy>  (1) 
-29.8688

>  <r_i_glide_einternal>  (1) 
2.25041

>  <r_i_glide_intrahb_reward>  (1) 
-0

>  <i_i_glide_confnum>  (1) 
4

>  <i_i_glide_posenum>  (1) 
14

>  <r_i_glide_eff_state_penalty>  (1) 
0

>  <ligand_id>  (1) 
0

>  <original_smiles>  (1) 
CC(Cc1cccnc1)NC(=O)c1nnc(Br)o1

>  <smiles>  (1) 
[H]c1nc([H])c(C([H])([H])C([H])(N([H])C(=O)c2nnc(Br)o2)C([H])([H])[H])c([H])c1[H]

$$$$
0:0:1
     RDKit          3D

 29 30  0  0  1  0  0  0  0  0999 V2000
    2.0815   -0.8592    3.4109 C   0  0  0  0  0  0  0  0  0  0  0  0
    1.9656    0.1566    2.2519 C   0  0  2  0  0  0  0  0  0  0  0  0
    0.5054    0.5487    1.8902 C   0  0  0  0  0  0  0  0  0  0  0  0
   -0.3583    0.9697    3.0956 C   0  0  0  0  0  0  0  0  0  0  0  0
   -0.8018    2.2982    3.2261 C   0  0  0  0  0  0  0  0  0  0  0  0
   -1.5314    2.6565    4.3801 C   0  0  0  0  0  0  0  0  0  0  0  0
   -1.7811    1.6683    5.3372 C   0  0  0  0  0  0  0  0  0  0  0  0
   -1.4342    0.3816    5.1956 N   0  0  0  0  0  0  0  0  0  0  0  0
   -0.7239    0.0396    4.0730 C   0  0  0  0  0  0  0  0  0  0  0  0
    2.6393   -0.3624    1.0659 N   0  0  0  0  0  0  0  0  0  0  0  0
    3.9691   -0.5527    0.9334 C   0  0  0  0  0  0  0  0  0  0  0  0
    4.7987   -0.2564    1.8056 O   0  0  0  0  0  0  0  0  0  0  0  0
    4.3995   -1.1685   -0.3495 C   0  0  0  0  0  0  0  0  0  0  0  0
    5.6216   -1.4393   -0.8101 N   0  0  0  0  0  0  0  0  0  0  0  0
    5.4356   -2.0347   -2.0488 N   0  0  0  0  0  0  0  0  0  0  0  0
    4.1368   -2.0664   -2.2331 C   0  0  0  0  0  0  0  0  0  0  0  0
    3.2715   -2.7519   -3.7935 Br  0  0  0  0  0  0  0  0  0  0  0  0
    3.4114   -1.5427   -1.2133 O   0  0  0  0  0  0  0  0  0  0  0  0
    1.6437   -0.4716    4.3275 H   0  0  0  0  0  0  0  0  0  0  0  0
    3.1234   -1.1238    3.6133 H   0  0  0  0  0  0  0  0  0  0  0  0
    1.5651   -1.7855    3.1574 H   0  0  0  0  0  0  0  0  0  0  0  0
    2.4782    1.0674    2.5596 H   0  0  0  0  0  0  0  0  0  0  0  0
    0.5150    1.3660    1.1683 H   0  0  0  0  0  0  0  0  0  0  0  0
   -0.0035   -0.2599    1.3803 H   0  0  0  0  0  0  0  0  0  0  0  0
   -0.5688    3.0487    2.4862 H   0  0  0  0  0  0  0  0  0  0  0  0
   -1.9007    3.6682    4.5095 H   0  0  0  0  0  0  0  0  0  0  0  0
   -2.3459    1.9013    6.2365 H   0  0  0  0  0  0  0  0  0  0  0  0
   -0.4751   -1.0065    4.0030 H   0  0  0  0  0  0  0  0  0  0  0  0
    2.0393   -0.6490    0.2894 H   0  0  0  0  0  0  0  0  0  0  0  0
  1  2  1  0
  1 19  1  0
  1 20  1  0
  1 21  1  0
  2  3  1  0
  2 10  1  0
  2 22  1  1
  3  4  1  0
  3 23  1  0
  3 24  1  0
  4  9  1  0
  4  5  2  0
  5  6  1  0
  5 25  1  0
  6  7  2  0
  6 26  1  0
  7  8  1  0
  7 27  1  0
  8  9  2  0
  9 28  1  0
 10 11  1  0
 10 29  1  0
 11 12  2  0
 11 13  1  0
 13 18  1  0
 13 14  2  0
 14 15  1  0
 15 16  2  0
 16 17  1  0
 16 18  1  0
M  END
>  <i_m_ct_stereo_status>  (2) 
1

>  <s_m_source_file>  (2) 
/var/tmp/pbs.5076255.sched01/tmpgn4o3w3f/0whq8s7pj.sdf

>  <i_m_source_file_index>  (2) 
1

>  <i_lp_mmshare_version>  (2) 
48012

>  <i_f3d_flags>  (2) 
0

>  <s_epik_input>  (2) 
QnJjKG8xKW5uYzFDKD1PKVtOSF1bQ0BIXShbQ0gzXSlbQ0gyXWMyW2NIXVtjSF1bY0hdbltjSF0y

>  <s_epik_cmdline>  (2) 
J2VwaWtfcHl0aG9uJywgJy1waHQnLCAnMi4wJywgJy1waCcsICc3LjAnLCAnLXRuJywgJzgnLCAnLW1hJywgJzIwMCcsICctaW1hZScsICc8aW5maWxlLm1hZT4nLCAnLW9tYWUnLCAnPG91dGZpbGUubWFlPic=

>  <r_lp_tautomer_probability>  (2) 
1

>  <r_epik_Ionization_Penalty>  (2) 
0.0107673

>  <r_epik_Ionization_Penalty_Charging>  (2) 
0

>  <r_epik_Ionization_Penalty_Neutral>  (2) 
0.0107673

>  <r_epik_State_Penalty>  (2) 
0.00816526

>  <r_epik_Charging_Adjusted_Penalty>  (2) 
0.00816526

>  <i_epik_Tot_Q>  (2) 
0

>  <i_epik_Tot_abs_Q>  (2) 
0

>  <s_lp_Force_Field>  (2) 
OPLS3e

>  <r_lp_Energy>  (2) 
17.6887

>  <b_lp_Chiralities_Consistent>  (2) 
1

>  <s_lp_Variant>  (2) 
0:0-1

>  <s_i_glide_gridfile>  (2) 
pfpi4k_grid

>  <i_i_glide_lignum>  (2) 
1

>  <i_i_glide_rotatable_bonds>  (2) 
5

>  <r_i_docking_score>  (2) 
-3.694

>  <r_i_glide_ligand_efficiency>  (2) 
-0.205222

>  <r_i_glide_ligand_efficiency_sa>  (2) 
-0.537835

>  <r_i_glide_ligand_efficiency_ln>  (2) 
-0.949524

>  <r_i_glide_gscore>  (2) 
-3.694

>  <r_i_glide_lipo>  (2) 
-0.154909

>  <r_i_glide_hbond>  (2) 
-0.206645

>  <r_i_glide_metal>  (2) 
-0

>  <r_i_glide_rewards>  (2) 
-1.35306

>  <r_i_glide_evdw>  (2) 
-27.0153

>  <r_i_glide_ecoul>  (2) 
-7.07271

>  <r_i_glide_erotb>  (2) 
0.574586

>  <r_i_glide_esite>  (2) 
-0.142299

>  <r_i_glide_emodel>  (2) 
-42.0293

>  <r_i_glide_energy>  (2) 
-34.088

>  <r_i_glide_einternal>  (2) 
0.710662

>  <r_i_glide_intrahb_reward>  (2) 
-0

>  <i_i_glide_confnum>  (2) 
1

>  <i_i_glide_posenum>  (2) 
34

>  <r_i_glide_eff_state_penalty>  (2) 
0

>  <ligand_id>  (2) 
0

>  <original_smiles>  (2) 
CC(Cc1cccnc1)NC(=O)c1nnc(Br)o1

>  <smiles>  (2) 
[H]c1nc([H])c(C([H])([H])C([H])(N([H])C(=O)c2nnc(Br)o2)C([H])([H])[H])c([H])c1[H]

$$$$
0:0:2
     RDKit          3D

 29 30  0  0  1  0  0  0  0  0999 V2000
    3.4263   -4.8044    2.4467 C   0  0  0  0  0  0  0  0  0  0  0  0
    3.3240   -5.1598    0.9554 C   0  0  2  0  0  0  0  0  0  0  0  0
    4.2145   -6.3630    0.5601 C   0  0  0  0  0  0  0  0  0  0  0  0
    5.6465   -6.2952    1.0822 C   0  0  0  0  0  0  0  0  0  0  0  0
    6.5010   -5.2260    0.7430 C   0  0  0  0  0  0  0  0  0  0  0  0
    7.8049   -5.2006    1.2599 C   0  0  0  0  0  0  0  0  0  0  0  0
    8.2176   -6.2608    2.0853 C   0  0  0  0  0  0  0  0  0  0  0  0
    7.4159   -7.2950    2.4139 N   0  0  0  0  0  0  0  0  0  0  0  0
    6.1588   -7.3078    1.9203 C   0  0  0  0  0  0  0  0  0  0  0  0
    3.6641   -3.9750    0.1616 N   0  0  0  0  0  0  0  0  0  0  0  0
    2.9205   -3.4545   -0.8269 C   0  0  0  0  0  0  0  0  0  0  0  0
    1.8021   -3.8642   -1.1197 O   0  0  0  0  0  0  0  0  0  0  0  0
    3.5660   -2.3568   -1.5947 C   0  0  0  0  0  0  0  0  0  0  0  0
    4.6879   -1.6720   -1.3215 N   0  0  0  0  0  0  0  0  0  0  0  0
    4.7983   -0.7186   -2.3175 N   0  0  0  0  0  0  0  0  0  0  0  0
    3.7587   -0.9306   -3.1208 C   0  0  0  0  0  0  0  0  0  0  0  0
    3.4641    0.0680   -4.7190 Br  0  0  0  0  0  0  0  0  0  0  0  0
    2.9584   -1.9522   -2.7457 O   0  0  0  0  0  0  0  0  0  0  0  0
    3.1952   -5.6687    3.0700 H   0  0  0  0  0  0  0  0  0  0  0  0
    2.7352   -4.0031    2.7048 H   0  0  0  0  0  0  0  0  0  0  0  0
    4.4245   -4.4573    2.7131 H   0  0  0  0  0  0  0  0  0  0  0  0
    2.2896   -5.4476    0.7494 H   0  0  0  0  0  0  0  0  0  0  0  0
    3.7529   -7.2709    0.9500 H   0  0  0  0  0  0  0  0  0  0  0  0
    4.2404   -6.4907   -0.5227 H   0  0  0  0  0  0  0  0  0  0  0  0
    6.1761   -4.4241    0.1000 H   0  0  0  0  0  0  0  0  0  0  0  0
    8.4695   -4.3804    1.0311 H   0  0  0  0  0  0  0  0  0  0  0  0
    9.2174   -6.2790    2.4919 H   0  0  0  0  0  0  0  0  0  0  0  0
    5.5574   -8.1562    2.2142 H   0  0  0  0  0  0  0  0  0  0  0  0
    4.5679   -3.5551    0.3148 H   0  0  0  0  0  0  0  0  0  0  0  0
  1  2  1  0
  1 19  1  0
  1 20  1  0
  1 21  1  0
  2  3  1  0
  2 10  1  0
  2 22  1  1
  3  4  1  0
  3 23  1  0
  3 24  1  0
  4  9  1  0
  4  5  2  0
  5  6  1  0
  5 25  1  0
  6  7  2  0
  6 26  1  0
  7  8  1  0
  7 27  1  0
  8  9  2  0
  9 28  1  0
 10 11  1  0
 10 29  1  0
 11 12  2  0
 11 13  1  0
 13 18  1  0
 13 14  2  0
 14 15  1  0
 15 16  2  0
 16 17  1  0
 16 18  1  0
M  END
>  <i_m_ct_stereo_status>  (3) 
1

>  <s_m_source_file>  (3) 
/var/tmp/pbs.5076255.sched01/tmpgn4o3w3f/0whq8s7pj.sdf

>  <i_m_source_file_index>  (3) 
1

>  <i_lp_mmshare_version>  (3) 
48012

>  <i_f3d_flags>  (3) 
0

>  <s_epik_input>  (3) 
QnJjKG8xKW5uYzFDKD1PKVtOSF1bQ0BIXShbQ0gzXSlbQ0gyXWMyW2NIXVtjSF1bY0hdbltjSF0y

>  <s_epik_cmdline>  (3) 
J2VwaWtfcHl0aG9uJywgJy1waHQnLCAnMi4wJywgJy1waCcsICc3LjAnLCAnLXRuJywgJzgnLCAnLW1hJywgJzIwMCcsICctaW1hZScsICc8aW5maWxlLm1hZT4nLCAnLW9tYWUnLCAnPG91dGZpbGUubWFlPic=

>  <r_lp_tautomer_probability>  (3) 
1

>  <r_epik_Ionization_Penalty>  (3) 
0.0107673

>  <r_epik_Ionization_Penalty_Charging>  (3) 
0

>  <r_epik_Ionization_Penalty_Neutral>  (3) 
0.0107673

>  <r_epik_State_Penalty>  (3) 
0.00816526

>  <r_epik_Charging_Adjusted_Penalty>  (3) 
0.00816526

>  <i_epik_Tot_Q>  (3) 
0

>  <i_epik_Tot_abs_Q>  (3) 
0

>  <s_lp_Force_Field>  (3) 
OPLS3e

>  <r_lp_Energy>  (3) 
17.6887

>  <b_lp_Chiralities_Consistent>  (3) 
1

>  <s_lp_Variant>  (3) 
0:0-1

>  <s_i_glide_gridfile>  (3) 
pfpi4k_grid

>  <i_i_glide_lignum>  (3) 
1

>  <i_i_glide_rotatable_bonds>  (3) 
5

>  <r_i_docking_score>  (3) 
-3.23229

>  <r_i_glide_ligand_efficiency>  (3) 
-0.179572

>  <r_i_glide_ligand_efficiency_sa>  (3) 
-0.470611

>  <r_i_glide_ligand_efficiency_ln>  (3) 
-0.830843

>  <r_i_glide_gscore>  (3) 
-3.23229

>  <r_i_glide_lipo>  (3) 
-0.781844

>  <r_i_glide_hbond>  (3) 
-0.00885983

>  <r_i_glide_metal>  (3) 
-0

>  <r_i_glide_rewards>  (3) 
-1.3209

>  <r_i_glide_evdw>  (3) 
-28.7749

>  <r_i_glide_ecoul>  (3) 
-1.2201

>  <r_i_glide_erotb>  (3) 
0.574586

>  <r_i_glide_esite>  (3) 
-0.0735065

>  <r_i_glide_emodel>  (3) 
-36.1175

>  <r_i_glide_energy>  (3) 
-29.995

>  <r_i_glide_einternal>  (3) 
3.25895

>  <r_i_glide_intrahb_reward>  (3) 
-0

>  <i_i_glide_confnum>  (3) 
5

>  <i_i_glide_posenum>  (3) 
3

>  <r_i_glide_eff_state_penalty>  (3) 
0

>  <ligand_id>  (3) 
0

>  <original_smiles>  (3) 
CC(Cc1cccnc1)NC(=O)c1nnc(Br)o1

>  <smiles>  (3) 
[H]c1nc([H])c(C([H])([H])C([H])(N([H])C(=O)c2nnc(Br)o2)C([H])([H])[H])c([H])c1[H]

$$$$
0:1:0
     RDKit          3D

 30 31  0  0  1  0  0  0  0  0999 V2000
    1.3639   -1.1542    2.6604 C   0  0  0  0  0  0  0  0  0  0  0  0
    2.2488   -0.0619    2.0308 C   0  0  2  0  0  0  0  0  0  0  0  0
    1.4446    1.1687    1.5538 C   0  0  0  0  0  0  0  0  0  0  0  0
    0.4616    1.6933    2.5841 C   0  0  0  0  0  0  0  0  0  0  0  0
    0.9028    2.4688    3.6797 C   0  0  0  0  0  0  0  0  0  0  0  0
   -0.0461    2.9160    4.6273 C   0  0  0  0  0  0  0  0  0  0  0  0
   -1.4063    2.5785    4.4566 C   0  0  0  0  0  0  0  0  0  0  0  0
   -1.7818    1.8303    3.3989 N   0  0  0  0  0  0  0  0  0  0  0  0
   -0.9108    1.3929    2.4720 C   0  0  0  0  0  0  0  0  0  0  0  0
    3.0082   -0.6401    0.9233 N   0  0  0  0  0  0  0  0  0  0  0  0
    4.3390   -0.7943    0.8453 C   0  0  0  0  0  0  0  0  0  0  0  0
    5.1289   -0.4118    1.7128 O   0  0  0  0  0  0  0  0  0  0  0  0
    4.8035   -1.4838   -0.3978 C   0  0  0  0  0  0  0  0  0  0  0  0
    6.0447   -1.8495   -0.7634 N   0  0  0  0  0  0  0  0  0  0  0  0
    5.9174   -2.4725   -1.9891 N   0  0  0  0  0  0  0  0  0  0  0  0
    4.6177   -2.4229   -2.2710 C   0  0  0  0  0  0  0  0  0  0  0  0
    3.8933   -3.0647   -3.9147 Br  0  0  0  0  0  0  0  0  0  0  0  0
    3.8588   -1.8155   -1.3269 O   0  0  0  0  0  0  0  0  0  0  0  0
    0.7809   -0.7764    3.5010 H   0  0  0  0  0  0  0  0  0  0  0  0
    1.9642   -1.9809    3.0436 H   0  0  0  0  0  0  0  0  0  0  0  0
    0.6661   -1.5587    1.9278 H   0  0  0  0  0  0  0  0  0  0  0  0
    2.9367    0.2840    2.8041 H   0  0  0  0  0  0  0  0  0  0  0  0
    2.1273    1.9727    1.2839 H   0  0  0  0  0  0  0  0  0  0  0  0
    0.8873    0.9442    0.6428 H   0  0  0  0  0  0  0  0  0  0  0  0
    1.9504    2.7027    3.7915 H   0  0  0  0  0  0  0  0  0  0  0  0
    0.2705    3.5083    5.4716 H   0  0  0  0  0  0  0  0  0  0  0  0
   -2.1979    2.8838    5.1231 H   0  0  0  0  0  0  0  0  0  0  0  0
   -1.3425    0.8090    1.6785 H   0  0  0  0  0  0  0  0  0  0  0  0
    2.4519   -0.9905    0.1426 H   0  0  0  0  0  0  0  0  0  0  0  0
   -2.7648    1.5636    3.2773 H   0  0  0  0  0  0  0  0  0  0  0  0
  1  2  1  0
  1 19  1  0
  1 20  1  0
  1 21  1  0
  2  3  1  0
  2 10  1  0
  2 22  1  1
  3  4  1  0
  3 23  1  0
  3 24  1  0
  4  9  1  0
  4  5  2  0
  5  6  1  0
  5 25  1  0
  6  7  2  0
  6 26  1  0
  7  8  1  0
  7 27  1  0
  8  9  2  0
  8 30  1  0
  9 28  1  0
 10 11  1  0
 10 29  1  0
 11 12  2  0
 11 13  1  0
 13 18  1  0
 13 14  2  0
 14 15  1  0
 15 16  2  0
 16 17  1  0
 16 18  1  0
M  CHG  1   8   1
M  END
>  <i_m_ct_stereo_status>  (4) 
1

>  <s_m_source_file>  (4) 
/var/tmp/pbs.5076255.sched01/tmpgn4o3w3f/0whq8s7pj.sdf

>  <i_m_source_file_index>  (4) 
2

>  <i_lp_mmshare_version>  (4) 
48012

>  <i_f3d_flags>  (4) 
0

>  <s_epik_input>  (4) 
QnJjKG8xKW5uYzFDKD1PKVtOSF1bQ0BIXShbQ0gzXSlbQ0gyXWMyW2NIXVtjSF1bY0hdbltjSF0y

>  <s_epik_cmdline>  (4) 
J2VwaWtfcHl0aG9uJywgJy1waHQnLCAnMi4wJywgJy1waCcsICc3LjAnLCAnLXRuJywgJzgnLCAnLW1hJywgJzIwMCcsICctaW1hZScsICc8aW5maWxlLm1hZT4nLCAnLW9tYWUnLCAnPG91dGZpbGUubWFlPic=

>  <r_lp_tautomer_probability>  (4) 
1

>  <r_epik_Ionization_Penalty>  (4) 
2.38591

>  <r_epik_Ionization_Penalty_Charging>  (4) 
2.38572

>  <r_epik_Ionization_Penalty_Neutral>  (4) 
0.000182518

>  <r_epik_State_Penalty>  (4) 
2.54255

>  <r_epik_Charging_Adjusted_Penalty>  (4) 
4.92827

>  <i_epik_Tot_Q>  (4) 
1

>  <i_epik_Tot_abs_Q>  (4) 
1

>  <s_lp_Force_Field>  (4) 
OPLS3e

>  <r_lp_Energy>  (4) 
21.3074

>  <b_lp_Chiralities_Consistent>  (4) 
1

>  <s_lp_Variant>  (4) 
0:0-2

>  <s_i_glide_gridfile>  (4) 
pfpi4k_grid

>  <i_i_glide_lignum>  (4) 
2

>  <i_i_glide_rotatable_bonds>  (4) 
5

>  <r_i_docking_score>  (4) 
-4.06661

>  <r_i_glide_ligand_efficiency>  (4) 
-0.225923

>  <r_i_glide_ligand_efficiency_sa>  (4) 
-0.592085

>  <r_i_glide_ligand_efficiency_ln>  (4) 
-1.0453

>  <r_i_glide_gscore>  (4) 
-4.06661

>  <r_i_glide_lipo>  (4) 
-0.138516

>  <r_i_glide_hbond>  (4) 
-0.206908

>  <r_i_glide_metal>  (4) 
-0

>  <r_i_glide_rewards>  (4) 
-1.37324

>  <r_i_glide_evdw>  (4) 
-27.468

>  <r_i_glide_ecoul>  (4) 
-9.22955

>  <r_i_glide_erotb>  (4) 
0.57133

>  <r_i_glide_esite>  (4) 
-0.161446

>  <r_i_glide_emodel>  (4) 
-46.7307

>  <r_i_glide_energy>  (4) 
-36.6976

>  <r_i_glide_einternal>  (4) 
0.945732

>  <r_i_glide_intrahb_reward>  (4) 
-0

>  <i_i_glide_confnum>  (4) 
5

>  <i_i_glide_posenum>  (4) 
36

>  <r_i_glide_eff_state_penalty>  (4) 
0

>  <ligand_id>  (4) 
0

>  <original_smiles>  (4) 
CC(Cc1cccnc1)NC(=O)c1nnc(Br)o1

>  <smiles>  (4) 
[H]c1c([H])c([H])[n+]([H])c([H])c1C([H])([H])C([H])(N([H])C(=O)c1nnc(Br)o1)C([H])([H])[H]

$$$$
0:1:1
     RDKit          3D

 30 31  0  0  1  0  0  0  0  0999 V2000
    2.2232   -3.4517   -1.9028 C   0  0  0  0  0  0  0  0  0  0  0  0
    2.7306   -3.1960   -0.4736 C   0  0  2  0  0  0  0  0  0  0  0  0
    3.7162   -2.0049   -0.4205 C   0  0  0  0  0  0  0  0  0  0  0  0
    5.1701   -2.3699   -0.6956 C   0  0  0  0  0  0  0  0  0  0  0  0
    6.0965   -2.4860    0.3676 C   0  0  0  0  0  0  0  0  0  0  0  0
    7.4304   -2.8376    0.0813 C   0  0  0  0  0  0  0  0  0  0  0  0
    7.8130   -3.0569   -1.2559 C   0  0  0  0  0  0  0  0  0  0  0  0
    6.9055   -2.9292   -2.2487 N   0  0  0  0  0  0  0  0  0  0  0  0
    5.6145   -2.6008   -2.0179 C   0  0  0  0  0  0  0  0  0  0  0  0
    3.3216   -4.4188    0.0801 N   0  0  0  0  0  0  0  0  0  0  0  0
    2.6436   -5.5029    0.4830 C   0  0  0  0  0  0  0  0  0  0  0  0
    1.4175   -5.6089    0.4488 O   0  0  0  0  0  0  0  0  0  0  0  0
    3.4913   -6.6145    0.9948 C   0  0  0  0  0  0  0  0  0  0  0  0
    4.8173   -6.7939    0.9045 N   0  0  0  0  0  0  0  0  0  0  0  0
    5.0781   -8.0072    1.5145 N   0  0  0  0  0  0  0  0  0  0  0  0
    3.8886   -8.4536    1.9187 C   0  0  0  0  0  0  0  0  0  0  0  0
    3.6672  -10.0744    2.8914 Br  0  0  0  0  0  0  0  0  0  0  0  0
    2.8518   -7.6320    1.6329 O   0  0  0  0  0  0  0  0  0  0  0  0
    1.8075   -2.5442   -2.3368 H   0  0  0  0  0  0  0  0  0  0  0  0
    1.4399   -4.2115   -1.9253 H   0  0  0  0  0  0  0  0  0  0  0  0
    3.0240   -3.7999   -2.5544 H   0  0  0  0  0  0  0  0  0  0  0  0
    1.8685   -2.9233    0.1372 H   0  0  0  0  0  0  0  0  0  0  0  0
    3.3996   -1.2218   -1.1105 H   0  0  0  0  0  0  0  0  0  0  0  0
    3.6545   -1.5481    0.5679 H   0  0  0  0  0  0  0  0  0  0  0  0
    5.7847   -2.3165    1.3895 H   0  0  0  0  0  0  0  0  0  0  0  0
    8.1541   -2.9503    0.8749 H   0  0  0  0  0  0  0  0  0  0  0  0
    8.8079   -3.3402   -1.5630 H   0  0  0  0  0  0  0  0  0  0  0  0
    4.9772   -2.5187   -2.8883 H   0  0  0  0  0  0  0  0  0  0  0  0
    4.3286   -4.4783    0.1222 H   0  0  0  0  0  0  0  0  0  0  0  0
    7.2374   -3.0761   -3.2118 H   0  0  0  0  0  0  0  0  0  0  0  0
  1  2  1  0
  1 19  1  0
  1 20  1  0
  1 21  1  0
  2  3  1  0
  2 10  1  0
  2 22  1  1
  3  4  1  0
  3 23  1  0
  3 24  1  0
  4  9  1  0
  4  5  2  0
  5  6  1  0
  5 25  1  0
  6  7  2  0
  6 26  1  0
  7  8  1  0
  7 27  1  0
  8  9  2  0
  8 30  1  0
  9 28  1  0
 10 11  1  0
 10 29  1  0
 11 12  2  0
 11 13  1  0
 13 18  1  0
 13 14  2  0
 14 15  1  0
 15 16  2  0
 16 17  1  0
 16 18  1  0
M  CHG  1   8   1
M  END
>  <i_m_ct_stereo_status>  (5) 
1

>  <s_m_source_file>  (5) 
/var/tmp/pbs.5076255.sched01/tmpgn4o3w3f/0whq8s7pj.sdf

>  <i_m_source_file_index>  (5) 
2

>  <i_lp_mmshare_version>  (5) 
48012

>  <i_f3d_flags>  (5) 
0

>  <s_epik_input>  (5) 
QnJjKG8xKW5uYzFDKD1PKVtOSF1bQ0BIXShbQ0gzXSlbQ0gyXWMyW2NIXVtjSF1bY0hdbltjSF0y

>  <s_epik_cmdline>  (5) 
J2VwaWtfcHl0aG9uJywgJy1waHQnLCAnMi4wJywgJy1waCcsICc3LjAnLCAnLXRuJywgJzgnLCAnLW1hJywgJzIwMCcsICctaW1hZScsICc8aW5maWxlLm1hZT4nLCAnLW9tYWUnLCAnPG91dGZpbGUubWFlPic=

>  <r_lp_tautomer_probability>  (5) 
1

>  <r_epik_Ionization_Penalty>  (5) 
2.38591

>  <r_epik_Ionization_Penalty_Charging>  (5) 
2.38572

>  <r_epik_Ionization_Penalty_Neutral>  (5) 
0.000182518

>  <r_epik_State_Penalty>  (5) 
2.54255

>  <r_epik_Charging_Adjusted_Penalty>  (5) 
4.92827

>  <i_epik_Tot_Q>  (5) 
1

>  <i_epik_Tot_abs_Q>  (5) 
1

>  <s_lp_Force_Field>  (5) 
OPLS3e

>  <r_lp_Energy>  (5) 
21.3074

>  <b_lp_Chiralities_Consistent>  (5) 
1

>  <s_lp_Variant>  (5) 
0:0-2

>  <s_i_glide_gridfile>  (5) 
pfpi4k_grid

>  <i_i_glide_lignum>  (5) 
2

>  <i_i_glide_rotatable_bonds>  (5) 
5

>  <r_i_docking_score>  (5) 
-3.92773

>  <r_i_glide_ligand_efficiency>  (5) 
-0.218207

>  <r_i_glide_ligand_efficiency_sa>  (5) 
-0.571865

>  <r_i_glide_ligand_efficiency_ln>  (5) 
-1.0096

>  <r_i_glide_gscore>  (5) 
-3.92773

>  <r_i_glide_lipo>  (5) 
-0.408951

>  <r_i_glide_hbond>  (5) 
-0.136239

>  <r_i_glide_metal>  (5) 
-0

>  <r_i_glide_rewards>  (5) 
-1.28085

>  <r_i_glide_evdw>  (5) 
-22.3575

>  <r_i_glide_ecoul>  (5) 
-9.73705

>  <r_i_glide_erotb>  (5) 
0.57133

>  <r_i_glide_esite>  (5) 
-0.0945925

>  <r_i_glide_emodel>  (5) 
-40.8409

>  <r_i_glide_energy>  (5) 
-32.0945

>  <r_i_glide_einternal>  (5) 
2.86141

>  <r_i_glide_intrahb_reward>  (5) 
-0

>  <i_i_glide_confnum>  (5) 
4

>  <i_i_glide_posenum>  (5) 
2

>  <r_i_glide_eff_state_penalty>  (5) 
0

>  <ligand_id>  (5) 
0

>  <original_smiles>  (5) 
CC(Cc1cccnc1)NC(=O)c1nnc(Br)o1

>  <smiles>  (5) 
[H]c1c([H])c([H])[n+]([H])c([H])c1C([H])([H])C([H])(N([H])C(=O)c1nnc(Br)o1)C([H])([H])[H]

$$$$
0:1:2
     RDKit          3D

 30 31  0  0  1  0  0  0  0  0999 V2000
    2.5371   -0.6562    3.3156 C   0  0  0  0  0  0  0  0  0  0  0  0
    2.4567    0.2799    2.0962 C   0  0  2  0  0  0  0  0  0  0  0  0
    1.0062    0.7460    1.8358 C   0  0  0  0  0  0  0  0  0  0  0  0
    0.4749    1.6566    2.9347 C   0  0  0  0  0  0  0  0  0  0  0  0
   -0.6085    1.2560    3.7508 C   0  0  0  0  0  0  0  0  0  0  0  0
   -1.0667    2.1195    4.7675 C   0  0  0  0  0  0  0  0  0  0  0  0
   -0.4402    3.3697    4.9446 C   0  0  0  0  0  0  0  0  0  0  0  0
    0.5825    3.7288    4.1363 N   0  0  0  0  0  0  0  0  0  0  0  0
    1.0531    2.9268    3.1554 C   0  0  0  0  0  0  0  0  0  0  0  0
    3.0001   -0.3964    0.9236 N   0  0  0  0  0  0  0  0  0  0  0  0
    4.3032   -0.6381    0.6844 C   0  0  0  0  0  0  0  0  0  0  0  0
    5.2166   -0.2930    1.4370 O   0  0  0  0  0  0  0  0  0  0  0  0
    4.5612   -1.3555   -0.5969 C   0  0  0  0  0  0  0  0  0  0  0  0
    5.7307   -1.7034   -1.1568 N   0  0  0  0  0  0  0  0  0  0  0  0
    5.4112   -2.3559   -2.3312 N   0  0  0  0  0  0  0  0  0  0  0  0
    4.0810   -2.3439   -2.3872 C   0  0  0  0  0  0  0  0  0  0  0  0
    3.1008   -3.0519   -3.8582 Br  0  0  0  0  0  0  0  0  0  0  0  0
    3.4822   -1.7330   -1.3413 O   0  0  0  0  0  0  0  0  0  0  0  0
    2.1124   -0.1996    4.2080 H   0  0  0  0  0  0  0  0  0  0  0  0
    3.5713   -0.9142    3.5460 H   0  0  0  0  0  0  0  0  0  0  0  0
    2.0077   -1.5883    3.1276 H   0  0  0  0  0  0  0  0  0  0  0  0
    3.0783    1.1621    2.2672 H   0  0  0  0  0  0  0  0  0  0  0  0
    0.9267    1.2805    0.8881 H   0  0  0  0  0  0  0  0  0  0  0  0
    0.3598   -0.1261    1.7275 H   0  0  0  0  0  0  0  0  0  0  0  0
   -1.0819    0.2970    3.6015 H   0  0  0  0  0  0  0  0  0  0  0  0
   -1.8888    1.8239    5.4007 H   0  0  0  0  0  0  0  0  0  0  0  0
   -0.7282    4.0879    5.6982 H   0  0  0  0  0  0  0  0  0  0  0  0
    1.8579    3.3378    2.5612 H   0  0  0  0  0  0  0  0  0  0  0  0
    2.3332   -0.6879    0.2095 H   0  0  0  0  0  0  0  0  0  0  0  0
    1.0134    4.6454    4.2579 H   0  0  0  0  0  0  0  0  0  0  0  0
  1  2  1  0
  1 19  1  0
  1 20  1  0
  1 21  1  0
  2  3  1  0
  2 10  1  0
  2 22  1  1
  3  4  1  0
  3 23  1  0
  3 24  1  0
  4  9  1  0
  4  5  2  0
  5  6  1  0
  5 25  1  0
  6  7  2  0
  6 26  1  0
  7  8  1  0
  7 27  1  0
  8  9  2  0
  8 30  1  0
  9 28  1  0
 10 11  1  0
 10 29  1  0
 11 12  2  0
 11 13  1  0
 13 18  1  0
 13 14  2  0
 14 15  1  0
 15 16  2  0
 16 17  1  0
 16 18  1  0
M  CHG  1   8   1
M  END
>  <i_m_ct_stereo_status>  (6) 
1

>  <s_m_source_file>  (6) 
/var/tmp/pbs.5076255.sched01/tmpgn4o3w3f/0whq8s7pj.sdf

>  <i_m_source_file_index>  (6) 
2

>  <i_lp_mmshare_version>  (6) 
48012

>  <i_f3d_flags>  (6) 
0

>  <s_epik_input>  (6) 
QnJjKG8xKW5uYzFDKD1PKVtOSF1bQ0BIXShbQ0gzXSlbQ0gyXWMyW2NIXVtjSF1bY0hdbltjSF0y

>  <s_epik_cmdline>  (6) 
J2VwaWtfcHl0aG9uJywgJy1waHQnLCAnMi4wJywgJy1waCcsICc3LjAnLCAnLXRuJywgJzgnLCAnLW1hJywgJzIwMCcsICctaW1hZScsICc8aW5maWxlLm1hZT4nLCAnLW9tYWUnLCAnPG91dGZpbGUubWFlPic=

>  <r_lp_tautomer_probability>  (6) 
1

>  <r_epik_Ionization_Penalty>  (6) 
2.38591

>  <r_epik_Ionization_Penalty_Charging>  (6) 
2.38572

>  <r_epik_Ionization_Penalty_Neutral>  (6) 
0.000182518

>  <r_epik_State_Penalty>  (6) 
2.54255

>  <r_epik_Charging_Adjusted_Penalty>  (6) 
4.92827

>  <i_epik_Tot_Q>  (6) 
1

>  <i_epik_Tot_abs_Q>  (6) 
1

>  <s_lp_Force_Field>  (6) 
OPLS3e

>  <r_lp_Energy>  (6) 
21.3074

>  <b_lp_Chiralities_Consistent>  (6) 
1

>  <s_lp_Variant>  (6) 
0:0-2

>  <s_i_glide_gridfile>  (6) 
pfpi4k_grid

>  <i_i_glide_lignum>  (6) 
2

>  <i_i_glide_rotatable_bonds>  (6) 
5

>  <r_i_docking_score>  (6) 
-3.87348

>  <r_i_glide_ligand_efficiency>  (6) 
-0.215194

>  <r_i_glide_ligand_efficiency_sa>  (6) 
-0.563967

>  <r_i_glide_ligand_efficiency_ln>  (6) 
-0.995659

>  <r_i_glide_gscore>  (6) 
-3.87348

>  <r_i_glide_lipo>  (6) 
-0.189292

>  <r_i_glide_hbond>  (6) 
-0.276419

>  <r_i_glide_metal>  (6) 
-0

>  <r_i_glide_rewards>  (6) 
-1.40625

>  <r_i_glide_evdw>  (6) 
-27.0678

>  <r_i_glide_ecoul>  (6) 
-6.98578

>  <r_i_glide_erotb>  (6) 
0.57133

>  <r_i_glide_esite>  (6) 
-0.171597

>  <r_i_glide_emodel>  (6) 
-43.292

>  <r_i_glide_energy>  (6) 
-34.0536

>  <r_i_glide_einternal>  (6) 
1.46289

>  <r_i_glide_intrahb_reward>  (6) 
-0

>  <i_i_glide_confnum>  (6) 
5

>  <i_i_glide_posenum>  (6) 
26

>  <r_i_glide_eff_state_penalty>  (6) 
0

>  <ligand_id>  (6) 
0

>  <original_smiles>  (6) 
CC(Cc1cccnc1)NC(=O)c1nnc(Br)o1

>  <smiles>  (6) 
[H]c1c([H])c([H])[n+]([H])c([H])c1C([H])([H])C([H])(N([H])C(=O)c1nnc(Br)o1)C([H])([H])[H]

$$$$
2:0:0
     RDKit          3D

 76 82  0  0  1  0  0  0  0  0999 V2000
    3.7151  -10.6416    4.3134 C   0  0  0  0  0  0  0  0  0  0  0  0
    3.0099  -10.2139    3.0021 C   0  0  0  0  0  0  0  0  0  0  0  0
    2.8836   -8.9892    2.4016 C   0  0  0  0  0  0  0  0  0  0  0  0
    3.4074   -7.6986    2.8900 C   0  0  0  0  0  0  0  0  0  0  0  0
    4.1780   -7.6113    4.2116 C   0  0  0  0  0  0  0  0  0  0  0  0
    3.1837   -6.5840    2.1336 C   0  0  0  0  0  0  0  0  0  0  0  0
    3.6633   -5.1491    2.4085 C   0  0  2  0  0  0  0  0  0  0  0  0
    2.5902   -4.1854    2.9689 C   0  0  0  0  0  0  0  0  0  0  0  0
    1.7189   -4.6488    3.9922 C   0  0  0  0  0  0  0  0  0  0  0  0
    0.7697   -3.7781    4.5669 C   0  0  0  0  0  0  0  0  0  0  0  0
    0.6842   -2.4453    4.1322 C   0  0  0  0  0  0  0  0  0  0  0  0
    1.5364   -1.9749    3.1109 C   0  0  0  0  0  0  0  0  0  0  0  0
    2.4990   -2.8398    2.5321 C   0  0  0  0  0  0  0  0  0  0  0  0
    3.3803   -2.3984    1.3536 C   0  0  1  0  0  0  0  0  0  0  0  0
    2.5610   -2.9433    0.1287 C   0  0  0  0  0  0  0  0  0  0  0  0
    2.8605   -4.3669   -0.3151 C   0  0  0  0  0  0  0  0  0  0  0  0
    4.3752   -4.6703   -0.1756 C   0  0  1  0  0  0  0  0  0  0  0  0
    5.1706   -3.6799   -1.0940 C   0  0  0  0  0  0  0  0  0  0  0  0
    4.9418   -3.6642   -2.4926 C   0  0  0  0  0  0  0  0  0  0  0  0
    4.7711   -2.4275   -3.1471 C   0  0  0  0  0  0  0  0  0  0  0  0
    4.6055   -1.2504   -2.4091 C   0  0  0  0  0  0  0  0  0  0  0  0
    4.1622   -0.1298   -3.0333 O   0  0  0  0  0  0  0  0  0  0  0  0
    4.8016   -1.2506   -0.9931 C   0  0  0  0  0  0  0  0  0  0  0  0
    5.3942   -2.4207   -0.5020 C   0  0  0  0  0  0  0  0  0  0  0  0
    5.9484   -2.3664    0.9181 C   0  0  1  0  0  0  0  0  0  0  0  0
    7.2031   -3.0299    1.0234 O   0  0  0  0  0  0  0  0  0  0  0  0
    8.2584   -2.6739    0.1091 C   0  0  0  0  0  0  0  0  0  0  0  0
    6.3460   -0.9622    1.5123 C   0  0  0  0  0  0  0  0  0  0  0  0
    5.4945   -0.3501    2.6351 C   0  0  0  0  0  0  0  0  0  0  0  0
    4.0668   -0.0627    2.2219 C   0  0  0  0  0  0  0  0  0  0  0  0
    3.4010    0.7923    2.7966 O   0  0  0  0  0  0  0  0  0  0  0  0
    3.5035   -0.8325    1.0462 C   0  0  1  0  0  0  0  0  0  0  0  0
    4.2278   -0.3416   -0.1469 O   0  0  0  0  0  0  0  0  0  0  0  0
    4.8088   -3.0712    1.6716 C   0  0  2  0  0  0  0  0  0  0  0  0
    4.7324   -4.6004    1.3611 C   0  0  1  0  0  0  0  0  0  0  0  0
    6.0420   -5.4452    1.6744 C   0  0  0  0  0  0  0  0  0  0  0  0
    7.0229   -5.8185    0.5226 C   0  0  0  0  0  0  0  0  0  0  0  0
    8.1836   -6.7073    0.9757 C   0  0  0  0  0  0  0  0  0  0  0  0
    2.9708  -11.2219    4.9043 H   0  0  0  0  0  0  0  0  0  0  0  0
    4.1069   -9.9324    4.9456 H   0  0  0  0  0  0  0  0  0  0  0  0
    4.5711  -11.2982    4.0239 H   0  0  0  0  0  0  0  0  0  0  0  0
    2.5261  -11.0511    2.4304 H   0  0  0  0  0  0  0  0  0  0  0  0
    2.3304   -8.9723    1.4647 H   0  0  0  0  0  0  0  0  0  0  0  0
    3.5501   -8.0673    4.9341 H   0  0  0  0  0  0  0  0  0  0  0  0
    4.3535   -6.6207    4.6237 H   0  0  0  0  0  0  0  0  0  0  0  0
    5.1409   -8.1223    4.0864 H   0  0  0  0  0  0  0  0  0  0  0  0
    2.5861   -6.7361    1.2431 H   0  0  0  0  0  0  0  0  0  0  0  0
    4.2578   -5.2015    3.3099 H   0  0  0  0  0  0  0  0  0  0  0  0
    1.7735   -5.6659    4.3489 H   0  0  0  0  0  0  0  0  0  0  0  0
    0.1084   -4.1384    5.3451 H   0  0  0  0  0  0  0  0  0  0  0  0
   -0.0464   -1.7807    4.5734 H   0  0  0  0  0  0  0  0  0  0  0  0
    1.4191   -0.9552    2.7817 H   0  0  0  0  0  0  0  0  0  0  0  0
    1.5054   -2.8266    0.3128 H   0  0  0  0  0  0  0  0  0  0  0  0
    2.6249   -2.3210   -0.7570 H   0  0  0  0  0  0  0  0  0  0  0  0
    2.2059   -5.0555    0.2185 H   0  0  0  0  0  0  0  0  0  0  0  0
    2.5181   -4.4500   -1.3380 H   0  0  0  0  0  0  0  0  0  0  0  0
    4.4908   -5.6835   -0.5489 H   0  0  0  0  0  0  0  0  0  0  0  0
    4.7400   -4.5819   -3.0331 H   0  0  0  0  0  0  0  0  0  0  0  0
    4.5840   -2.4123   -4.2129 H   0  0  0  0  0  0  0  0  0  0  0  0
    3.8730    0.5457   -2.4401 H   0  0  0  0  0  0  0  0  0  0  0  0
    9.1370   -3.2678    0.3521 H   0  0  0  0  0  0  0  0  0  0  0  0
    8.5654   -1.6312    0.1277 H   0  0  0  0  0  0  0  0  0  0  0  0
    8.0027   -2.9464   -0.9128 H   0  0  0  0  0  0  0  0  0  0  0  0
    7.3078   -0.9971    2.0090 H   0  0  0  0  0  0  0  0  0  0  0  0
    6.5797   -0.2555    0.7255 H   0  0  0  0  0  0  0  0  0  0  0  0
    5.4772   -0.9830    3.5189 H   0  0  0  0  0  0  0  0  0  0  0  0
    5.9650    0.5701    2.9658 H   0  0  0  0  0  0  0  0  0  0  0  0
    2.4890   -0.4634    0.9010 H   0  0  0  0  0  0  0  0  0  0  0  0
    5.0394   -2.9672    2.7335 H   0  0  0  0  0  0  0  0  0  0  0  0
    6.5770   -4.9892    2.5095 H   0  0  0  0  0  0  0  0  0  0  0  0
    5.7495   -6.4258    2.0416 H   0  0  0  0  0  0  0  0  0  0  0  0
    6.4822   -6.2666   -0.2931 H   0  0  0  0  0  0  0  0  0  0  0  0
    7.4834   -4.9842    0.0360 H   0  0  0  0  0  0  0  0  0  0  0  0
    8.8537   -6.8942    0.1361 H   0  0  0  0  0  0  0  0  0  0  0  0
    7.8047   -7.6606    1.3332 H   0  0  0  0  0  0  0  0  0  0  0  0
    8.7659   -6.2346    1.7678 H   0  0  0  0  0  0  0  0  0  0  0  0
  1  2  1  0
  1 39  1  0
  1 40  1  0
  1 41  1  0
  2  3  2  3
  2 42  1  0
  3  4  1  0
  3 43  1  0
  4  5  1  0
  4  6  2  3
  5 44  1  0
  5 45  1  0
  5 46  1  0
  6  7  1  0
  6 47  1  0
  7 35  1  0
  7  8  1  0
  7 48  1  1
  8 13  2  0
  8  9  1  0
  9 10  2  0
  9 49  1  0
 10 11  1  0
 10 50  1  0
 11 12  2  0
 11 51  1  0
 12 13  1  0
 12 52  1  0
 13 14  1  0
 14 32  1  0
 14 34  1  0
 14 15  1  6
 15 16  1  0
 15 53  1  0
 15 54  1  0
 16 17  1  0
 16 55  1  0
 16 56  1  0
 17 35  1  0
 17 18  1  0
 17 57  1  6
 18 24  2  0
 18 19  1  0
 19 20  2  0
 19 58  1  0
 20 21  1  0
 20 59  1  0
 21 22  1  0
 21 23  2  0
 22 60  1  0
 23 33  1  0
 23 24  1  0
 24 25  1  0
 25 26  1  6
 25 28  1  0
 25 34  1  0
 26 27  1  0
 27 61  1  0
 27 62  1  0
 27 63  1  0
 28 29  1  0
 28 64  1  0
 28 65  1  0
 29 30  1  0
 29 66  1  0
 29 67  1  0
 30 31  2  0
 30 32  1  0
 32 33  1  0
 32 68  1  6
 34 35  1  0
 34 69  1  1
 35 36  1  6
 36 37  1  0
 36 70  1  0
 36 71  1  0
 37 38  1  0
 37 72  1  0
 37 73  1  0
 38 74  1  0
 38 75  1  0
 38 76  1  0
M  END
>  <i_m_ct_stereo_status>  (7) 
1

>  <s_m_source_file>  (7) 
/var/tmp/pbs.5076255.sched01/tmpgn4o3w3f/0whq8s7pj.sdf

>  <i_m_source_file_index>  (7) 
4

>  <i_lp_mmshare_version>  (7) 
48012

>  <i_f3d_flags>  (7) 
0

>  <s_epik_input>  (7) 
W0NIM10vW0NIXT1bQ0hdL0MoW0NIM10pPVtDSF1cW0NASF0oYyhjMVtDQEBdMjM0KVtjSF1bY0hdW2NIXVtjSF0xKVtDQEBdNShbQ0gyXVtDSDJdW0NIM10pW0NAQEhdKFtDSDJdW0NIMl0yKWM2YzdjKGMoW09IXSlbY0hdW2NIXTYpT1tDQEBIXTNDKD1PKVtDSDJdW0NIMl1bQ0BdNyhbQ0BASF00NSlPW0NIM10=

>  <s_epik_cmdline>  (7) 
J2VwaWtfcHl0aG9uJywgJy1waHQnLCAnMi4wJywgJy1waCcsICc3LjAnLCAnLXRuJywgJzgnLCAnLW1hJywgJzIwMCcsICctaW1hZScsICc8aW5maWxlLm1hZT4nLCAnLW9tYWUnLCAnPG91dGZpbGUubWFlPic=

>  <r_lp_tautomer_probability>  (7) 
1

>  <r_epik_Ionization_Penalty>  (7) 
0.000450452

>  <r_epik_Ionization_Penalty_Charging>  (7) 
0

>  <r_epik_Ionization_Penalty_Neutral>  (7) 
0.000450452

>  <r_epik_State_Penalty>  (7) 
0.000278289

>  <r_epik_Charging_Adjusted_Penalty>  (7) 
0.000278289

>  <i_epik_Tot_Q>  (7) 
0

>  <i_epik_Tot_abs_Q>  (7) 
0

>  <s_lp_Force_Field>  (7) 
OPLS3e

>  <r_lp_Energy>  (7) 
165.968

>  <b_lp_Chiralities_Consistent>  (7) 
1

>  <s_lp_Variant>  (7) 
2:0-1

>  <s_i_glide_gridfile>  (7) 
pfpi4k_grid

>  <i_i_glide_lignum>  (7) 
4

>  <i_i_glide_rotatable_bonds>  (7) 
6

>  <r_i_docking_score>  (7) 
-1.99401

>  <r_i_glide_ligand_efficiency>  (7) 
-0.052474

>  <r_i_glide_ligand_efficiency_sa>  (7) 
-0.176416

>  <r_i_glide_ligand_efficiency_ln>  (7) 
-0.429968

>  <r_i_glide_gscore>  (7) 
-1.99401

>  <r_i_glide_lipo>  (7) 
-0.798193

>  <r_i_glide_hbond>  (7) 
0

>  <r_i_glide_metal>  (7) 
-0

>  <r_i_glide_rewards>  (7) 
-0.0437858

>  <r_i_glide_evdw>  (7) 
-28.5049

>  <r_i_glide_ecoul>  (7) 
0.250093

>  <r_i_glide_erotb>  (7) 
0.235695

>  <r_i_glide_esite>  (7) 
0

>  <r_i_glide_emodel>  (7) 
-28.4062

>  <r_i_glide_energy>  (7) 
-28.2548

>  <r_i_glide_einternal>  (7) 
1.54376

>  <r_i_glide_intrahb_reward>  (7) 
-0

>  <i_i_glide_confnum>  (7) 
2

>  <i_i_glide_posenum>  (7) 
25

>  <r_i_glide_eff_state_penalty>  (7) 
0

>  <ligand_id>  (7) 
2

>  <original_smiles>  (7) 
CC=CC(C)=CC1c2ccccc2C23CCC4c5ccc(O)c6c5C(OC)(CCC(=O)C2O6)C3C14CCC

>  <smiles>  (7) 
[H]Oc1c([H])c([H])c2c3c1OC1([H])C(=O)C([H])([H])C([H])([H])C3(OC([H])([H])[H])C3([H])C14c1c([H])c([H])c([H])c([H])c1C([H])(C([H])=C(C([H])=C([H])C([H])([H])[H])C([H])([H])[H])C3(C([H])([H])C([H])([H])C([H])([H])[H])C2([H])C([H])([H])C4([H])[H]

$$$$
2:0:1
     RDKit          3D

 76 82  0  0  1  0  0  0  0  0999 V2000
    4.1077  -10.8997    3.9140 C   0  0  0  0  0  0  0  0  0  0  0  0
    3.4056  -10.4559    2.6162 C   0  0  0  0  0  0  0  0  0  0  0  0
    3.2745   -9.2351    2.0192 C   0  0  0  0  0  0  0  0  0  0  0  0
    3.7998   -7.9479    2.5218 C   0  0  0  0  0  0  0  0  0  0  0  0
    4.5985   -7.8986    3.8352 C   0  0  0  0  0  0  0  0  0  0  0  0
    3.5484   -6.8216    1.8030 C   0  0  0  0  0  0  0  0  0  0  0  0
    4.0119   -5.3880    2.1105 C   0  0  2  0  0  0  0  0  0  0  0  0
    2.9702   -4.4869    2.8116 C   0  0  0  0  0  0  0  0  0  0  0  0
    2.2105   -5.0158    3.8848 C   0  0  0  0  0  0  0  0  0  0  0  0
    1.2989   -4.2064    4.5879 C   0  0  0  0  0  0  0  0  0  0  0  0
    1.1406   -2.8552    4.2275 C   0  0  0  0  0  0  0  0  0  0  0  0
    1.8808   -2.3176    3.1568 C   0  0  0  0  0  0  0  0  0  0  0  0
    2.8055   -3.1196    2.4468 C   0  0  0  0  0  0  0  0  0  0  0  0
    3.5637   -2.5991    1.2172 C   0  0  1  0  0  0  0  0  0  0  0  0
    2.6458   -3.1095    0.0474 C   0  0  0  0  0  0  0  0  0  0  0  0
    2.9374   -4.5042   -0.4841 C   0  0  0  0  0  0  0  0  0  0  0  0
    4.4708   -4.7683   -0.4988 C   0  0  1  0  0  0  0  0  0  0  0  0
    5.1369   -3.7140   -1.4505 C   0  0  0  0  0  0  0  0  0  0  0  0
    4.7776   -3.6357   -2.8148 C   0  0  0  0  0  0  0  0  0  0  0  0
    4.5215   -2.3773   -3.4032 C   0  0  0  0  0  0  0  0  0  0  0  0
    4.4046   -1.2371   -2.5851 C   0  0  0  0  0  0  0  0  0  0  0  0
    3.8447   -0.1193   -3.1145 O   0  0  0  0  0  0  0  0  0  0  0  0
    4.7149   -1.2968   -1.2172 C   0  0  0  0  0  0  0  0  0  0  0  0
    5.3622   -2.4674   -0.8302 C   0  0  0  0  0  0  0  0  0  0  0  0
    6.0623   -2.4662    0.5068 C   0  0  1  0  0  0  0  0  0  0  0  0
    7.3156   -3.1473    0.3916 O   0  0  0  0  0  0  0  0  0  0  0  0
    8.3209   -2.6782   -0.5167 C   0  0  0  0  0  0  0  0  0  0  0  0
    6.4999   -1.0859    1.1509 C   0  0  0  0  0  0  0  0  0  0  0  0
    5.7420   -0.5442    2.3844 C   0  0  0  0  0  0  0  0  0  0  0  0
    4.2702   -0.2720    2.1262 C   0  0  0  0  0  0  0  0  0  0  0  0
    3.6434    0.5382    2.8004 O   0  0  0  0  0  0  0  0  0  0  0  0
    3.6143   -1.0162    0.9724 C   0  0  1  0  0  0  0  0  0  0  0  0
    4.2042   -0.4478   -0.2583 O   0  0  0  0  0  0  0  0  0  0  0  0
    5.0353   -3.2308    1.3579 C   0  0  2  0  0  0  0  0  0  0  0  0
    4.9675   -4.7516    1.0065 C   0  0  1  0  0  0  0  0  0  0  0  0
    6.3254   -5.5672    1.0960 C   0  0  0  0  0  0  0  0  0  0  0  0
    7.2948   -5.2775    2.2746 C   0  0  0  0  0  0  0  0  0  0  0  0
    8.4690   -6.2496    2.3497 C   0  0  0  0  0  0  0  0  0  0  0  0
    3.3612  -11.4994    4.5004 H   0  0  0  0  0  0  0  0  0  0  0  0
    4.4927  -10.1903    4.5564 H   0  0  0  0  0  0  0  0  0  0  0  0
    4.9772  -11.5503    3.6185 H   0  0  0  0  0  0  0  0  0  0  0  0
    2.9232  -11.3067    2.0830 H   0  0  0  0  0  0  0  0  0  0  0  0
    2.7216   -9.2086    1.0871 H   0  0  0  0  0  0  0  0  0  0  0  0
    3.9890   -8.3647    4.5553 H   0  0  0  0  0  0  0  0  0  0  0  0
    4.7593   -6.9019    4.2682 H   0  0  0  0  0  0  0  0  0  0  0  0
    5.5658   -8.3902    3.6783 H   0  0  0  0  0  0  0  0  0  0  0  0
    2.9356   -6.9577    0.9191 H   0  0  0  0  0  0  0  0  0  0  0  0
    4.6767   -5.4842    2.9551 H   0  0  0  0  0  0  0  0  0  0  0  0
    2.3255   -6.0496    4.1878 H   0  0  0  0  0  0  0  0  0  0  0  0
    0.7282   -4.6196    5.4096 H   0  0  0  0  0  0  0  0  0  0  0  0
    0.4420   -2.2335    4.7731 H   0  0  0  0  0  0  0  0  0  0  0  0
    1.7100   -1.2824    2.8933 H   0  0  0  0  0  0  0  0  0  0  0  0
    1.6110   -3.0341    0.3296 H   0  0  0  0  0  0  0  0  0  0  0  0
    2.6209   -2.4468   -0.8108 H   0  0  0  0  0  0  0  0  0  0  0  0
    2.3460   -5.2322    0.0687 H   0  0  0  0  0  0  0  0  0  0  0  0
    2.4796   -4.5328   -1.4671 H   0  0  0  0  0  0  0  0  0  0  0  0
    4.6285   -5.7509   -0.9223 H   0  0  0  0  0  0  0  0  0  0  0  0
    4.5545   -4.5341   -3.3811 H   0  0  0  0  0  0  0  0  0  0  0  0
    4.2203   -2.3206   -4.4388 H   0  0  0  0  0  0  0  0  0  0  0  0
    3.5448    0.5064   -2.4628 H   0  0  0  0  0  0  0  0  0  0  0  0
    9.2363   -3.2585   -0.3499 H   0  0  0  0  0  0  0  0  0  0  0  0
    8.6033   -1.6210   -0.3772 H   0  0  0  0  0  0  0  0  0  0  0  0
    8.0098   -2.8484   -1.5582 H   0  0  0  0  0  0  0  0  0  0  0  0
    7.5017   -1.1689    1.5570 H   0  0  0  0  0  0  0  0  0  0  0  0
    6.6318   -0.3106    0.3992 H   0  0  0  0  0  0  0  0  0  0  0  0
    5.8153   -1.2208    3.2355 H   0  0  0  0  0  0  0  0  0  0  0  0
    6.2041    0.3806    2.7210 H   0  0  0  0  0  0  0  0  0  0  0  0
    2.5828   -0.6731    0.9447 H   0  0  0  0  0  0  0  0  0  0  0  0
    5.3595   -3.1694    2.4011 H   0  0  0  0  0  0  0  0  0  0  0  0
    6.0970   -6.6282    1.1186 H   0  0  0  0  0  0  0  0  0  0  0  0
    6.8760   -5.4509    0.1586 H   0  0  0  0  0  0  0  0  0  0  0  0
    7.7693   -4.3273    2.1062 H   0  0  0  0  0  0  0  0  0  0  0  0
    6.7883   -5.2104    3.2403 H   0  0  0  0  0  0  0  0  0  0  0  0
    9.1651   -5.9443    3.1314 H   0  0  0  0  0  0  0  0  0  0  0  0
    9.0227   -6.2693    1.4110 H   0  0  0  0  0  0  0  0  0  0  0  0
    8.1201   -7.2537    2.5714 H   0  0  0  0  0  0  0  0  0  0  0  0
  1  2  1  0
  1 39  1  0
  1 40  1  0
  1 41  1  0
  2  3  2  3
  2 42  1  0
  3  4  1  0
  3 43  1  0
  4  5  1  0
  4  6  2  3
  5 44  1  0
  5 45  1  0
  5 46  1  0
  6  7  1  0
  6 47  1  0
  7 35  1  0
  7  8  1  0
  7 48  1  1
  8 13  2  0
  8  9  1  0
  9 10  2  0
  9 49  1  0
 10 11  1  0
 10 50  1  0
 11 12  2  0
 11 51  1  0
 12 13  1  0
 12 52  1  0
 13 14  1  0
 14 32  1  0
 14 34  1  0
 14 15  1  6
 15 16  1  0
 15 53  1  0
 15 54  1  0
 16 17  1  0
 16 55  1  0
 16 56  1  0
 17 35  1  0
 17 18  1  0
 17 57  1  6
 18 24  2  0
 18 19  1  0
 19 20  2  0
 19 58  1  0
 20 21  1  0
 20 59  1  0
 21 22  1  0
 21 23  2  0
 22 60  1  0
 23 33  1  0
 23 24  1  0
 24 25  1  0
 25 26  1  6
 25 28  1  0
 25 34  1  0
 26 27  1  0
 27 61  1  0
 27 62  1  0
 27 63  1  0
 28 29  1  0
 28 64  1  0
 28 65  1  0
 29 30  1  0
 29 66  1  0
 29 67  1  0
 30 31  2  0
 30 32  1  0
 32 33  1  0
 32 68  1  6
 34 35  1  0
 34 69  1  1
 35 36  1  6
 36 37  1  0
 36 70  1  0
 36 71  1  0
 37 38  1  0
 37 72  1  0
 37 73  1  0
 38 74  1  0
 38 75  1  0
 38 76  1  0
M  END
>  <i_m_ct_stereo_status>  (8) 
1

>  <s_m_source_file>  (8) 
/var/tmp/pbs.5076255.sched01/tmpgn4o3w3f/0whq8s7pj.sdf

>  <i_m_source_file_index>  (8) 
4

>  <i_lp_mmshare_version>  (8) 
48012

>  <i_f3d_flags>  (8) 
0

>  <s_epik_input>  (8) 
W0NIM10vW0NIXT1bQ0hdL0MoW0NIM10pPVtDSF1cW0NASF0oYyhjMVtDQEBdMjM0KVtjSF1bY0hdW2NIXVtjSF0xKVtDQEBdNShbQ0gyXVtDSDJdW0NIM10pW0NAQEhdKFtDSDJdW0NIMl0yKWM2YzdjKGMoW09IXSlbY0hdW2NIXTYpT1tDQEBIXTNDKD1PKVtDSDJdW0NIMl1bQ0BdNyhbQ0BASF00NSlPW0NIM10=

>  <s_epik_cmdline>  (8) 
J2VwaWtfcHl0aG9uJywgJy1waHQnLCAnMi4wJywgJy1waCcsICc3LjAnLCAnLXRuJywgJzgnLCAnLW1hJywgJzIwMCcsICctaW1hZScsICc8aW5maWxlLm1hZT4nLCAnLW9tYWUnLCAnPG91dGZpbGUubWFlPic=

>  <r_lp_tautomer_probability>  (8) 
1

>  <r_epik_Ionization_Penalty>  (8) 
0.000450452

>  <r_epik_Ionization_Penalty_Charging>  (8) 
0

>  <r_epik_Ionization_Penalty_Neutral>  (8) 
0.000450452

>  <r_epik_State_Penalty>  (8) 
0.000278289

>  <r_epik_Charging_Adjusted_Penalty>  (8) 
0.000278289

>  <i_epik_Tot_Q>  (8) 
0

>  <i_epik_Tot_abs_Q>  (8) 
0

>  <s_lp_Force_Field>  (8) 
OPLS3e

>  <r_lp_Energy>  (8) 
165.968

>  <b_lp_Chiralities_Consistent>  (8) 
1

>  <s_lp_Variant>  (8) 
2:0-1

>  <s_i_glide_gridfile>  (8) 
pfpi4k_grid

>  <i_i_glide_lignum>  (8) 
4

>  <i_i_glide_rotatable_bonds>  (8) 
6

>  <r_i_docking_score>  (8) 
-1.99046

>  <r_i_glide_ligand_efficiency>  (8) 
-0.0523805

>  <r_i_glide_ligand_efficiency_sa>  (8) 
-0.176102

>  <r_i_glide_ligand_efficiency_ln>  (8) 
-0.429201

>  <r_i_glide_gscore>  (8) 
-1.99046

>  <r_i_glide_lipo>  (8) 
-0.628799

>  <r_i_glide_hbond>  (8) 
0

>  <r_i_glide_metal>  (8) 
-0

>  <r_i_glide_rewards>  (8) 
-0.101502

>  <r_i_glide_evdw>  (8) 
-30.2493

>  <r_i_glide_ecoul>  (8) 
0.110737

>  <r_i_glide_erotb>  (8) 
0.235695

>  <r_i_glide_esite>  (8) 
0

>  <r_i_glide_emodel>  (8) 
-30.6099

>  <r_i_glide_energy>  (8) 
-30.1385

>  <r_i_glide_einternal>  (8) 
0.797995

>  <r_i_glide_intrahb_reward>  (8) 
-0

>  <i_i_glide_confnum>  (8) 
1

>  <i_i_glide_posenum>  (8) 
13

>  <r_i_glide_eff_state_penalty>  (8) 
0

>  <ligand_id>  (8) 
2

>  <original_smiles>  (8) 
CC=CC(C)=CC1c2ccccc2C23CCC4c5ccc(O)c6c5C(OC)(CCC(=O)C2O6)C3C14CCC

>  <smiles>  (8) 
[H]Oc1c([H])c([H])c2c3c1OC1([H])C(=O)C([H])([H])C([H])([H])C3(OC([H])([H])[H])C3([H])C14c1c([H])c([H])c([H])c([H])c1C([H])(C([H])=C(C([H])=C([H])C([H])([H])[H])C([H])([H])[H])C3(C([H])([H])C([H])([H])C([H])([H])[H])C2([H])C([H])([H])C4([H])[H]

$$$$
2:0:2
     RDKit          3D

 76 82  0  0  1  0  0  0  0  0999 V2000
    3.9241  -10.8670    3.9857 C   0  0  0  0  0  0  0  0  0  0  0  0
    3.3334  -10.4339    2.6362 C   0  0  0  0  0  0  0  0  0  0  0  0
    3.2728   -9.2250    2.0041 C   0  0  0  0  0  0  0  0  0  0  0  0
    3.7853   -7.9414    2.5218 C   0  0  0  0  0  0  0  0  0  0  0  0
    4.4974   -7.8832    3.8824 C   0  0  0  0  0  0  0  0  0  0  0  0
    3.6020   -6.8215    1.7716 C   0  0  0  0  0  0  0  0  0  0  0  0
    4.0665   -5.3910    2.0880 C   0  0  2  0  0  0  0  0  0  0  0  0
    3.0321   -4.4950    2.8073 C   0  0  0  0  0  0  0  0  0  0  0  0
    2.2822   -5.0334    3.8838 C   0  0  0  0  0  0  0  0  0  0  0  0
    1.3781   -4.2310    4.6049 C   0  0  0  0  0  0  0  0  0  0  0  0
    1.2164   -2.8768    4.2587 C   0  0  0  0  0  0  0  0  0  0  0  0
    1.9461   -2.3291    3.1848 C   0  0  0  0  0  0  0  0  0  0  0  0
    2.8636   -3.1250    2.4576 C   0  0  0  0  0  0  0  0  0  0  0  0
    3.6075   -2.5915    1.2241 C   0  0  1  0  0  0  0  0  0  0  0  0
    2.6736   -3.0926    0.0604 C   0  0  0  0  0  0  0  0  0  0  0  0
    2.9632   -4.4816   -0.4895 C   0  0  0  0  0  0  0  0  0  0  0  0
    4.4972   -4.7441   -0.5200 C   0  0  1  0  0  0  0  0  0  0  0  0
    5.1521   -3.6823   -1.4679 C   0  0  0  0  0  0  0  0  0  0  0  0
    4.7781   -3.5947   -2.8264 C   0  0  0  0  0  0  0  0  0  0  0  0
    4.5107   -2.3334   -3.4039 C   0  0  0  0  0  0  0  0  0  0  0  0
    4.4044   -1.1890   -2.5846 C   0  0  0  0  0  0  0  0  0  0  0  0
    3.8581   -0.0577   -3.1156 O   0  0  0  0  0  0  0  0  0  0  0  0
    4.7380   -1.2651   -1.2078 C   0  0  0  0  0  0  0  0  0  0  0  0
    5.3927   -2.4423   -0.8381 C   0  0  0  0  0  0  0  0  0  0  0  0
    6.1022   -2.4514    0.4935 C   0  0  1  0  0  0  0  0  0  0  0  0
    7.3570   -3.1262    0.3636 O   0  0  0  0  0  0  0  0  0  0  0  0
    8.3503   -2.6563   -0.5531 C   0  0  0  0  0  0  0  0  0  0  0  0
    6.5451   -1.0784    1.1454 C   0  0  0  0  0  0  0  0  0  0  0  0
    5.7890   -0.5548    2.3902 C   0  0  0  0  0  0  0  0  0  0  0  0
    4.3225   -0.2782    2.1431 C   0  0  0  0  0  0  0  0  0  0  0  0
    3.7057    0.5239    2.8358 O   0  0  0  0  0  0  0  0  0  0  0  0
    3.6557   -1.0065    0.9939 C   0  0  1  0  0  0  0  0  0  0  0  0
    4.2223   -0.4298   -0.2399 O   0  0  0  0  0  0  0  0  0  0  0  0
    5.0811   -3.2272    1.3451 C   0  0  2  0  0  0  0  0  0  0  0  0
    5.0092   -4.7440    0.9804 C   0  0  1  0  0  0  0  0  0  0  0  0
    6.3679   -5.5600    1.0471 C   0  0  0  0  0  0  0  0  0  0  0  0
    7.3376   -5.2971    2.2305 C   0  0  0  0  0  0  0  0  0  0  0  0
    8.5165   -6.2653    2.2778 C   0  0  0  0  0  0  0  0  0  0  0  0
    3.1274  -11.4379    4.5283 H   0  0  0  0  0  0  0  0  0  0  0  0
    4.2726  -10.1333    4.6439 H   0  0  0  0  0  0  0  0  0  0  0  0
    4.8016  -11.5343    3.7743 H   0  0  0  0  0  0  0  0  0  0  0  0
    2.8773  -11.2916    2.0852 H   0  0  0  0  0  0  0  0  0  0  0  0
    2.7890   -9.2067    1.0342 H   0  0  0  0  0  0  0  0  0  0  0  0
    3.8317   -8.3388    4.5717 H   0  0  0  0  0  0  0  0  0  0  0  0
    4.6434   -6.8815    4.3078 H   0  0  0  0  0  0  0  0  0  0  0  0
    5.4630   -8.3949    3.8027 H   0  0  0  0  0  0  0  0  0  0  0  0
    3.0486   -6.9586    0.8492 H   0  0  0  0  0  0  0  0  0  0  0  0
    4.7385   -5.5037    2.9279 H   0  0  0  0  0  0  0  0  0  0  0  0
    2.3955   -6.0674    4.1766 H   0  0  0  0  0  0  0  0  0  0  0  0
    0.8175   -4.6531    5.4271 H   0  0  0  0  0  0  0  0  0  0  0  0
    0.5244   -2.2618    4.8166 H   0  0  0  0  0  0  0  0  0  0  0  0
    1.7726   -1.2935    2.9333 H   0  0  0  0  0  0  0  0  0  0  0  0
    1.6416   -3.0294    0.3616 H   0  0  0  0  0  0  0  0  0  0  0  0
    2.6256   -2.4188   -0.7903 H   0  0  0  0  0  0  0  0  0  0  0  0
    2.3808   -5.2167    0.0639 H   0  0  0  0  0  0  0  0  0  0  0  0
    2.5000   -4.5021   -1.4711 H   0  0  0  0  0  0  0  0  0  0  0  0
    4.6438   -5.7234   -0.9588 H   0  0  0  0  0  0  0  0  0  0  0  0
    4.5500   -4.4864   -3.3997 H   0  0  0  0  0  0  0  0  0  0  0  0
    4.2075   -2.2707   -4.4388 H   0  0  0  0  0  0  0  0  0  0  0  0
    3.3286   -0.1974   -3.8812 H   0  0  0  0  0  0  0  0  0  0  0  0
    9.2683   -3.2360   -0.4052 H   0  0  0  0  0  0  0  0  0  0  0  0
    8.6283   -1.6032   -0.4069 H   0  0  0  0  0  0  0  0  0  0  0  0
    8.0245   -2.8149   -1.5880 H   0  0  0  0  0  0  0  0  0  0  0  0
    7.5559   -1.1570    1.5342 H   0  0  0  0  0  0  0  0  0  0  0  0
    6.6660   -0.2976    0.3977 H   0  0  0  0  0  0  0  0  0  0  0  0
    5.8795   -1.2361    3.2347 H   0  0  0  0  0  0  0  0  0  0  0  0
    6.2181    0.3791    2.7430 H   0  0  0  0  0  0  0  0  0  0  0  0
    2.6236   -0.6634    0.9802 H   0  0  0  0  0  0  0  0  0  0  0  0
    5.4160   -3.1751    2.3858 H   0  0  0  0  0  0  0  0  0  0  0  0
    6.1426   -6.6217    1.0389 H   0  0  0  0  0  0  0  0  0  0  0  0
    6.9214   -5.4173    0.1174 H   0  0  0  0  0  0  0  0  0  0  0  0
    7.7956   -4.3317    2.0867 H   0  0  0  0  0  0  0  0  0  0  0  0
    6.8385   -5.2670    3.1995 H   0  0  0  0  0  0  0  0  0  0  0  0
    9.2092   -5.9883    3.0731 H   0  0  0  0  0  0  0  0  0  0  0  0
    9.0742   -6.2559    1.3424 H   0  0  0  0  0  0  0  0  0  0  0  0
    8.1730   -7.2779    2.4631 H   0  0  0  0  0  0  0  0  0  0  0  0
  1  2  1  0
  1 39  1  0
  1 40  1  0
  1 41  1  0
  2  3  2  3
  2 42  1  0
  3  4  1  0
  3 43  1  0
  4  5  1  0
  4  6  2  3
  5 44  1  0
  5 45  1  0
  5 46  1  0
  6  7  1  0
  6 47  1  0
  7 35  1  0
  7  8  1  0
  7 48  1  1
  8 13  2  0
  8  9  1  0
  9 10  2  0
  9 49  1  0
 10 11  1  0
 10 50  1  0
 11 12  2  0
 11 51  1  0
 12 13  1  0
 12 52  1  0
 13 14  1  0
 14 32  1  0
 14 34  1  0
 14 15  1  6
 15 16  1  0
 15 53  1  0
 15 54  1  0
 16 17  1  0
 16 55  1  0
 16 56  1  0
 17 35  1  0
 17 18  1  0
 17 57  1  6
 18 24  2  0
 18 19  1  0
 19 20  2  0
 19 58  1  0
 20 21  1  0
 20 59  1  0
 21 22  1  0
 21 23  2  0
 22 60  1  0
 23 33  1  0
 23 24  1  0
 24 25  1  0
 25 26  1  6
 25 28  1  0
 25 34  1  0
 26 27  1  0
 27 61  1  0
 27 62  1  0
 27 63  1  0
 28 29  1  0
 28 64  1  0
 28 65  1  0
 29 30  1  0
 29 66  1  0
 29 67  1  0
 30 31  2  0
 30 32  1  0
 32 33  1  0
 32 68  1  6
 34 35  1  0
 34 69  1  1
 35 36  1  6
 36 37  1  0
 36 70  1  0
 36 71  1  0
 37 38  1  0
 37 72  1  0
 37 73  1  0
 38 74  1  0
 38 75  1  0
 38 76  1  0
M  END
>  <i_m_ct_stereo_status>  (9) 
1

>  <s_m_source_file>  (9) 
/var/tmp/pbs.5076255.sched01/tmpgn4o3w3f/0whq8s7pj.sdf

>  <i_m_source_file_index>  (9) 
4

>  <i_lp_mmshare_version>  (9) 
48012

>  <i_f3d_flags>  (9) 
0

>  <s_epik_input>  (9) 
W0NIM10vW0NIXT1bQ0hdL0MoW0NIM10pPVtDSF1cW0NASF0oYyhjMVtDQEBdMjM0KVtjSF1bY0hdW2NIXVtjSF0xKVtDQEBdNShbQ0gyXVtDSDJdW0NIM10pW0NAQEhdKFtDSDJdW0NIMl0yKWM2YzdjKGMoW09IXSlbY0hdW2NIXTYpT1tDQEBIXTNDKD1PKVtDSDJdW0NIMl1bQ0BdNyhbQ0BASF00NSlPW0NIM10=

>  <s_epik_cmdline>  (9) 
J2VwaWtfcHl0aG9uJywgJy1waHQnLCAnMi4wJywgJy1waCcsICc3LjAnLCAnLXRuJywgJzgnLCAnLW1hJywgJzIwMCcsICctaW1hZScsICc8aW5maWxlLm1hZT4nLCAnLW9tYWUnLCAnPG91dGZpbGUubWFlPic=

>  <r_lp_tautomer_probability>  (9) 
1

>  <r_epik_Ionization_Penalty>  (9) 
0.000450452

>  <r_epik_Ionization_Penalty_Charging>  (9) 
0

>  <r_epik_Ionization_Penalty_Neutral>  (9) 
0.000450452

>  <r_epik_State_Penalty>  (9) 
0.000278289

>  <r_epik_Charging_Adjusted_Penalty>  (9) 
0.000278289

>  <i_epik_Tot_Q>  (9) 
0

>  <i_epik_Tot_abs_Q>  (9) 
0

>  <s_lp_Force_Field>  (9) 
OPLS3e

>  <r_lp_Energy>  (9) 
165.968

>  <b_lp_Chiralities_Consistent>  (9) 
1

>  <s_lp_Variant>  (9) 
2:0-1

>  <s_i_glide_gridfile>  (9) 
pfpi4k_grid

>  <i_i_glide_lignum>  (9) 
4

>  <i_i_glide_rotatable_bonds>  (9) 
6

>  <r_i_docking_score>  (9) 
-1.83968

>  <r_i_glide_ligand_efficiency>  (9) 
-0.0484126

>  <r_i_glide_ligand_efficiency_sa>  (9) 
-0.162762

>  <r_i_glide_ligand_efficiency_ln>  (9) 
-0.396689

>  <r_i_glide_gscore>  (9) 
-1.83968

>  <r_i_glide_lipo>  (9) 
-0.639894

>  <r_i_glide_hbond>  (9) 
0

>  <r_i_glide_metal>  (9) 
-0

>  <r_i_glide_rewards>  (9) 
-0.107352

>  <r_i_glide_evdw>  (9) 
-30.5675

>  <r_i_glide_ecoul>  (9) 
1.33497

>  <r_i_glide_erotb>  (9) 
0.235695

>  <r_i_glide_esite>  (9) 
0

>  <r_i_glide_emodel>  (9) 
-28.8223

>  <r_i_glide_energy>  (9) 
-29.2325

>  <r_i_glide_einternal>  (9) 
0.893261

>  <r_i_glide_intrahb_reward>  (9) 
-0

>  <i_i_glide_confnum>  (9) 
1

>  <i_i_glide_posenum>  (9) 
10

>  <r_i_glide_eff_state_penalty>  (9) 
0

>  <ligand_id>  (9) 
2

>  <original_smiles>  (9) 
CC=CC(C)=CC1c2ccccc2C23CCC4c5ccc(O)c6c5C(OC)(CCC(=O)C2O6)C3C14CCC

>  <smiles>  (9) 
[H]Oc1c([H])c([H])c2c3c1OC1([H])C(=O)C([H])([H])C([H])([H])C3(OC([H])([H])[H])C3([H])C14c1c([H])c([H])c([H])c([H])c1C([H])(C([H])=C(C([H])=C([H])C([H])([H])[H])C([H])([H])[H])C3(C([H])([H])C([H])([H])C([H])([H])[H])C2([H])C([H])([H])C4([H])[H]

$$$$
3:0:0
     RDKit          3D

 39 43  0  0  1  0  0  0  0  0999 V2000
    4.2053   -0.5415   -3.7049 C   0  0  0  0  0  0  0  0  0  0  0  0
    4.1292   -1.2553   -2.7207 C   0  0  0  0  0  0  0  0  0  0  0  0
    4.0196   -2.0889   -1.5357 C   0  0  0  0  0  0  0  0  0  0  0  0
    4.4895   -3.4222   -1.5668 C   0  0  0  0  0  0  0  0  0  0  0  0
    4.3761   -4.2301   -0.4212 C   0  0  0  0  0  0  0  0  0  0  0  0
    3.8013   -3.7485    0.7770 C   0  0  0  0  0  0  0  0  0  0  0  0
    3.7064   -4.5777    1.8672 N   0  0  0  0  0  0  0  0  0  0  0  0
    3.1767   -4.1624    3.0524 C   0  0  0  0  0  0  0  0  0  0  0  0
    2.7026   -2.8506    3.1225 C   0  0  0  0  0  0  0  0  0  0  0  0
    2.7855   -1.9684    2.0038 C   0  0  0  0  0  0  0  0  0  0  0  0
    3.3398   -2.3889    0.7814 C   0  0  0  0  0  0  0  0  0  0  0  0
    3.4448   -1.5754   -0.3578 C   0  0  0  0  0  0  0  0  0  0  0  0
    2.1168   -0.8262    2.7537 C   0  0  2  0  0  0  0  0  0  0  0  0
    0.8364   -0.3273    2.2554 N   0  0  0  0  0  0  0  0  0  0  0  0
    0.8649    1.0128    2.1829 C   0  0  0  0  0  0  0  0  0  0  0  0
   -0.1783    1.7389    1.7562 N   0  0  0  0  0  0  0  0  0  0  0  0
    2.0480    1.5239    2.5862 N   0  0  0  0  0  0  0  0  0  0  0  0
    2.3457    2.9553    2.7671 C   0  0  0  0  0  0  0  0  0  0  0  0
    2.9232    0.4537    2.9567 C   0  0  0  0  0  0  0  0  0  0  0  0
    4.0592    0.5616    3.4106 O   0  0  0  0  0  0  0  0  0  0  0  0
    2.0447   -1.8295    4.0238 C   0  0  0  0  0  0  0  0  0  0  0  0
    0.7571   -2.1345    4.7806 C   0  0  0  0  0  0  0  0  0  0  0  0
    1.4104   -1.9643    6.0616 O   0  0  0  0  0  0  0  0  0  0  0  0
    2.6282   -1.5320    5.4075 C   0  0  0  0  0  0  0  0  0  0  0  0
    4.2606    0.0938   -4.5602 H   0  0  0  0  0  0  0  0  0  0  0  0
    4.9226   -3.8285   -2.4737 H   0  0  0  0  0  0  0  0  0  0  0  0
    4.7307   -5.2498   -0.4710 H   0  0  0  0  0  0  0  0  0  0  0  0
    3.1434   -4.8525    3.8826 H   0  0  0  0  0  0  0  0  0  0  0  0
    3.0561   -0.5694   -0.3313 H   0  0  0  0  0  0  0  0  0  0  0  0
   -0.9799    1.2792    1.3519 H   0  0  0  0  0  0  0  0  0  0  0  0
    0.0475   -0.9225    2.0435 H   0  0  0  0  0  0  0  0  0  0  0  0
    3.4083    3.1653    2.6757 H   0  0  0  0  0  0  0  0  0  0  0  0
    2.0383    3.2944    3.7536 H   0  0  0  0  0  0  0  0  0  0  0  0
    1.8402    3.5717    2.0330 H   0  0  0  0  0  0  0  0  0  0  0  0
   -0.0288   -1.3967    4.6269 H   0  0  0  0  0  0  0  0  0  0  0  0
    0.3932   -3.1508    4.6300 H   0  0  0  0  0  0  0  0  0  0  0  0
    3.4836   -2.1565    5.6670 H   0  0  0  0  0  0  0  0  0  0  0  0
    2.8405   -0.4818    5.6029 H   0  0  0  0  0  0  0  0  0  0  0  0
   -0.0916    2.7461    1.5510 H   0  0  0  0  0  0  0  0  0  0  0  0
  1  2  3  0
  1 25  1  0
  2  3  1  0
  3 12  2  0
  3  4  1  0
  4  5  2  0
  4 26  1  0
  5  6  1  0
  5 27  1  0
  6 11  2  0
  6  7  1  0
  7  8  2  0
  8  9  1  0
  8 28  1  0
  9 21  1  0
  9 10  2  0
 10 11  1  0
 10 13  1  0
 11 12  1  0
 12 29  1  0
 13 14  1  0
 13 19  1  0
 13 21  1  1
 14 15  2  0
 14 31  1  0
 15 17  1  0
 15 16  1  0
 16 30  1  0
 16 39  1  0
 17 19  1  0
 17 18  1  0
 18 32  1  0
 18 33  1  0
 18 34  1  0
 19 20  2  0
 21 24  1  0
 21 22  1  0
 22 23  1  0
 22 35  1  0
 22 36  1  0
 23 24  1  0
 24 37  1  0
 24 38  1  0
M  CHG  1  14   1
M  END
>  <i_m_ct_stereo_status>  (10) 
1

>  <s_m_source_file>  (10) 
/var/tmp/pbs.5076255.sched01/tmpgn4o3w3f/0whq8s7pj.sdf

>  <i_m_source_file_index>  (10) 
5

>  <i_lp_mmshare_version>  (10) 
48012

>  <i_f3d_flags>  (10) 
0

>  <s_epik_input>  (10) 
W0NIXSNDYyhbY0hdMSlbY0hdW2NIXWMobltjSF0yKWMxYzNjMkM0KFtDSDJdT1tDSDJdNClbQ0BdMzVOPUMoW05IMl0pTihbQ0gzXSlDNT1P

>  <s_epik_cmdline>  (10) 
J2VwaWtfcHl0aG9uJywgJy1waHQnLCAnMi4wJywgJy1waCcsICc3LjAnLCAnLXRuJywgJzgnLCAnLW1hJywgJzIwMCcsICctaW1hZScsICc8aW5maWxlLm1hZT4nLCAnLW9tYWUnLCAnPG91dGZpbGUubWFlPic=

>  <r_lp_tautomer_probability>  (10) 
1

>  <r_epik_Ionization_Penalty>  (10) 
0.599796

>  <r_epik_Ionization_Penalty_Charging>  (10) 
0.598915

>  <r_epik_Ionization_Penalty_Neutral>  (10) 
0.000880382

>  <r_epik_State_Penalty>  (10) 
0.0386922

>  <r_epik_Charging_Adjusted_Penalty>  (10) 
0.637607

>  <i_epik_Tot_Q>  (10) 
1

>  <i_epik_Tot_abs_Q>  (10) 
1

>  <s_epik_Chemistry_Notes>  (10) 
This compound has an imine and may undergo hydrolysis.

>  <s_lp_Force_Field>  (10) 
OPLS3e

>  <r_lp_Energy>  (10) 
19.4948

>  <b_lp_Chiralities_Consistent>  (10) 
1

>  <s_lp_Variant>  (10) 
3:0-1

>  <s_i_glide_gridfile>  (10) 
pfpi4k_grid

>  <i_i_glide_lignum>  (10) 
5

>  <i_i_glide_rotatable_bonds>  (10) 
1

>  <r_i_docking_score>  (10) 
-3.57014

>  <r_i_glide_ligand_efficiency>  (10) 
-0.148756

>  <r_i_glide_ligand_efficiency_sa>  (10) 
-0.429086

>  <r_i_glide_ligand_efficiency_ln>  (10) 
-0.854499

>  <r_i_glide_gscore>  (10) 
-3.57014

>  <r_i_glide_lipo>  (10) 
-0.247209

>  <r_i_glide_hbond>  (10) 
-0.222418

>  <r_i_glide_metal>  (10) 
-0

>  <r_i_glide_rewards>  (10) 
-1.3197

>  <r_i_glide_evdw>  (10) 
-19.2538

>  <r_i_glide_ecoul>  (10) 
-5.76075

>  <r_i_glide_erotb>  (10) 
0.182959

>  <r_i_glide_esite>  (10) 
-0.136973

>  <r_i_glide_emodel>  (10) 
-32.1346

>  <r_i_glide_energy>  (10) 
-25.0146

>  <r_i_glide_einternal>  (10) 
0.0351492

>  <r_i_glide_intrahb_reward>  (10) 
-0

>  <i_i_glide_confnum>  (10) 
2

>  <i_i_glide_posenum>  (10) 
16

>  <r_i_glide_eff_state_penalty>  (10) 
0

>  <ligand_id>  (10) 
3

>  <original_smiles>  (10) 
C#Cc1ccc2ncc3c(c2c1)C1(N=C(N)N(C)C1=O)C31COC1

>  <smiles>  (10) 
[H]C#Cc1c([H])c([H])c2nc([H])c3c(c2c1[H])C1(C(=O)N(C([H])([H])[H])C(N([H])[H])=[N+]1[H])C31C([H])([H])OC1([H])[H]

$$$$
3:0:1
     RDKit          3D

 39 43  0  0  1  0  0  0  0  0999 V2000
   -1.6609    1.4251    2.0575 C   0  0  0  0  0  0  0  0  0  0  0  0
   -0.5102    1.2036    2.3745 C   0  0  0  0  0  0  0  0  0  0  0  0
    0.8506    0.9507    2.7578 C   0  0  0  0  0  0  0  0  0  0  0  0
    1.2754    1.3721    4.0355 C   0  0  0  0  0  0  0  0  0  0  0  0
    2.5866    1.0957    4.4490 C   0  0  0  0  0  0  0  0  0  0  0  0
    3.4800    0.4005    3.6016 C   0  0  0  0  0  0  0  0  0  0  0  0
    4.7389    0.1646    4.0693 N   0  0  0  0  0  0  0  0  0  0  0  0
    5.6509   -0.4968    3.3129 C   0  0  0  0  0  0  0  0  0  0  0  0
    5.2804   -0.9550    2.0588 C   0  0  0  0  0  0  0  0  0  0  0  0
    3.9746   -0.7250    1.5512 C   0  0  0  0  0  0  0  0  0  0  0  0
    3.0217   -0.0131    2.3127 C   0  0  0  0  0  0  0  0  0  0  0  0
    1.7198    0.2701    1.8797 C   0  0  0  0  0  0  0  0  0  0  0  0
    4.2825   -1.4487    0.2447 C   0  0  2  0  0  0  0  0  0  0  0  0
    4.2668   -0.6583   -0.9813 N   0  0  0  0  0  0  0  0  0  0  0  0
    3.5172   -1.2625   -1.9092 C   0  0  0  0  0  0  0  0  0  0  0  0
    3.2785   -0.7372   -3.1247 N   0  0  0  0  0  0  0  0  0  0  0  0
    3.0186   -2.4365   -1.4673 N   0  0  0  0  0  0  0  0  0  0  0  0
    2.2943   -3.4095   -2.2773 C   0  0  0  0  0  0  0  0  0  0  0  0
    3.4310   -2.6667   -0.1149 C   0  0  0  0  0  0  0  0  0  0  0  0
    3.1700   -3.6608    0.5560 O   0  0  0  0  0  0  0  0  0  0  0  0
    5.7604   -1.7099    0.8482 C   0  0  0  0  0  0  0  0  0  0  0  0
    7.0127   -1.3094    0.0947 C   0  0  0  0  0  0  0  0  0  0  0  0
    7.6492   -2.5786    0.3586 O   0  0  0  0  0  0  0  0  0  0  0  0
    6.4216   -3.0782    0.9439 C   0  0  0  0  0  0  0  0  0  0  0  0
   -2.6305    1.6848    1.6967 H   0  0  0  0  0  0  0  0  0  0  0  0
    0.6012    1.8985    4.6926 H   0  0  0  0  0  0  0  0  0  0  0  0
    2.9158    1.4122    5.4228 H   0  0  0  0  0  0  0  0  0  0  0  0
    6.6105   -0.6494    3.7147 H   0  0  0  0  0  0  0  0  0  0  0  0
    1.3829   -0.0265    0.9028 H   0  0  0  0  0  0  0  0  0  0  0  0
    3.4997    0.2331   -3.3123 H   0  0  0  0  0  0  0  0  0  0  0  0
    4.6434    0.2812   -1.0618 H   0  0  0  0  0  0  0  0  0  0  0  0
    1.6886   -4.1039   -1.6847 H   0  0  0  0  0  0  0  0  0  0  0  0
    3.0477   -3.9418   -2.8507 H   0  0  0  0  0  0  0  0  0  0  0  0
    1.6483   -2.9408   -3.0140 H   0  0  0  0  0  0  0  0  0  0  0  0
    6.7304   -1.2018   -0.9426 H   0  0  0  0  0  0  0  0  0  0  0  0
    7.5772   -0.4640    0.4962 H   0  0  0  0  0  0  0  0  0  0  0  0
    6.5573   -3.4103    1.9698 H   0  0  0  0  0  0  0  0  0  0  0  0
    5.9454   -3.8215    0.3086 H   0  0  0  0  0  0  0  0  0  0  0  0
    2.5987   -1.1630   -3.7411 H   0  0  0  0  0  0  0  0  0  0  0  0
  1  2  3  0
  1 25  1  0
  2  3  1  0
  3 12  2  0
  3  4  1  0
  4  5  2  0
  4 26  1  0
  5  6  1  0
  5 27  1  0
  6 11  2  0
  6  7  1  0
  7  8  2  0
  8  9  1  0
  8 28  1  0
  9 21  1  0
  9 10  2  0
 10 11  1  0
 10 13  1  0
 11 12  1  0
 12 29  1  0
 13 14  1  0
 13 19  1  0
 13 21  1  1
 14 15  2  0
 14 31  1  0
 15 17  1  0
 15 16  1  0
 16 30  1  0
 16 39  1  0
 17 19  1  0
 17 18  1  0
 18 32  1  0
 18 33  1  0
 18 34  1  0
 19 20  2  0
 21 24  1  0
 21 22  1  0
 22 23  1  0
 22 35  1  0
 22 36  1  0
 23 24  1  0
 24 37  1  0
 24 38  1  0
M  CHG  1  14   1
M  END
>  <i_m_ct_stereo_status>  (11) 
1

>  <s_m_source_file>  (11) 
/var/tmp/pbs.5076255.sched01/tmpgn4o3w3f/0whq8s7pj.sdf

>  <i_m_source_file_index>  (11) 
5

>  <i_lp_mmshare_version>  (11) 
48012

>  <i_f3d_flags>  (11) 
0

>  <s_epik_input>  (11) 
W0NIXSNDYyhbY0hdMSlbY0hdW2NIXWMobltjSF0yKWMxYzNjMkM0KFtDSDJdT1tDSDJdNClbQ0BdMzVOPUMoW05IMl0pTihbQ0gzXSlDNT1P

>  <s_epik_cmdline>  (11) 
J2VwaWtfcHl0aG9uJywgJy1waHQnLCAnMi4wJywgJy1waCcsICc3LjAnLCAnLXRuJywgJzgnLCAnLW1hJywgJzIwMCcsICctaW1hZScsICc8aW5maWxlLm1hZT4nLCAnLW9tYWUnLCAnPG91dGZpbGUubWFlPic=

>  <r_lp_tautomer_probability>  (11) 
1

>  <r_epik_Ionization_Penalty>  (11) 
0.599796

>  <r_epik_Ionization_Penalty_Charging>  (11) 
0.598915

>  <r_epik_Ionization_Penalty_Neutral>  (11) 
0.000880382

>  <r_epik_State_Penalty>  (11) 
0.0386922

>  <r_epik_Charging_Adjusted_Penalty>  (11) 
0.637607

>  <i_epik_Tot_Q>  (11) 
1

>  <i_epik_Tot_abs_Q>  (11) 
1

>  <s_epik_Chemistry_Notes>  (11) 
This compound has an imine and may undergo hydrolysis.

>  <s_lp_Force_Field>  (11) 
OPLS3e

>  <r_lp_Energy>  (11) 
19.4948

>  <b_lp_Chiralities_Consistent>  (11) 
1

>  <s_lp_Variant>  (11) 
3:0-1

>  <s_i_glide_gridfile>  (11) 
pfpi4k_grid

>  <i_i_glide_lignum>  (11) 
5

>  <i_i_glide_rotatable_bonds>  (11) 
1

>  <r_i_docking_score>  (11) 
-3.52524

>  <r_i_glide_ligand_efficiency>  (11) 
-0.146885

>  <r_i_glide_ligand_efficiency_sa>  (11) 
-0.42369

>  <r_i_glide_ligand_efficiency_ln>  (11) 
-0.843752

>  <r_i_glide_gscore>  (11) 
-3.52524

>  <r_i_glide_lipo>  (11) 
-0.684319

>  <r_i_glide_hbond>  (11) 
0

>  <r_i_glide_metal>  (11) 
-0

>  <r_i_glide_rewards>  (11) 
-1.23179

>  <r_i_glide_evdw>  (11) 
-19.0661

>  <r_i_glide_ecoul>  (11) 
-4.71096

>  <r_i_glide_erotb>  (11) 
0.182959

>  <r_i_glide_esite>  (11) 
-0.132137

>  <r_i_glide_emodel>  (11) 
-30.688

>  <r_i_glide_energy>  (11) 
-23.7771

>  <r_i_glide_einternal>  (11) 
0.0414588

>  <r_i_glide_intrahb_reward>  (11) 
-0

>  <i_i_glide_confnum>  (11) 
1

>  <i_i_glide_posenum>  (11) 
2

>  <r_i_glide_eff_state_penalty>  (11) 
0

>  <ligand_id>  (11) 
3

>  <original_smiles>  (11) 
C#Cc1ccc2ncc3c(c2c1)C1(N=C(N)N(C)C1=O)C31COC1

>  <smiles>  (11) 
[H]C#Cc1c([H])c([H])c2nc([H])c3c(c2c1[H])C1(C(=O)N(C([H])([H])[H])C(N([H])[H])=[N+]1[H])C31C([H])([H])OC1([H])[H]

$$$$
3:0:2
     RDKit          3D

 39 43  0  0  1  0  0  0  0  0999 V2000
    2.0102   -7.0513    4.0946 C   0  0  0  0  0  0  0  0  0  0  0  0
    1.5246   -5.9828    4.4279 C   0  0  0  0  0  0  0  0  0  0  0  0
    0.9703   -4.6959    4.8094 C   0  0  0  0  0  0  0  0  0  0  0  0
   -0.0365   -4.6389    5.7952 C   0  0  0  0  0  0  0  0  0  0  0  0
   -0.5843   -3.3954    6.1700 C   0  0  0  0  0  0  0  0  0  0  0  0
   -0.1435   -2.1878    5.5839 C   0  0  0  0  0  0  0  0  0  0  0  0
   -0.7208   -1.0012    5.9837 N   0  0  0  0  0  0  0  0  0  0  0  0
   -0.3199    0.1986    5.4646 C   0  0  0  0  0  0  0  0  0  0  0  0
    0.6920    0.1841    4.5046 C   0  0  0  0  0  0  0  0  0  0  0  0
    1.3045   -1.0376    4.0822 C   0  0  0  0  0  0  0  0  0  0  0  0
    0.8920   -2.2754    4.5969 C   0  0  0  0  0  0  0  0  0  0  0  0
    1.4433   -3.5124    4.2030 C   0  0  0  0  0  0  0  0  0  0  0  0
    2.2172   -0.3291    3.0943 C   0  0  2  0  0  0  0  0  0  0  0  0
    2.0507   -0.6811    1.6845 N   0  0  0  0  0  0  0  0  0  0  0  0
    3.2569   -0.9212    1.1395 C   0  0  0  0  0  0  0  0  0  0  0  0
    3.4111   -1.2559   -0.1515 N   0  0  0  0  0  0  0  0  0  0  0  0
    4.2660   -0.7840    2.0201 N   0  0  0  0  0  0  0  0  0  0  0  0
    5.7037   -0.8759    1.7212 C   0  0  0  0  0  0  0  0  0  0  0  0
    3.7253   -0.4500    3.2974 C   0  0  0  0  0  0  0  0  0  0  0  0
    4.3881   -0.2656    4.3161 O   0  0  0  0  0  0  0  0  0  0  0  0
    1.5289    1.0526    3.5857 C   0  0  0  0  0  0  0  0  0  0  0  0
    0.9086    2.0726    2.6389 C   0  0  0  0  0  0  0  0  0  0  0  0
    1.5703    3.1649    3.3206 O   0  0  0  0  0  0  0  0  0  0  0  0
    2.3066    2.2426    4.1510 C   0  0  0  0  0  0  0  0  0  0  0  0
    2.4299   -7.9901    3.8129 H   0  0  0  0  0  0  0  0  0  0  0  0
   -0.4090   -5.5469    6.2576 H   0  0  0  0  0  0  0  0  0  0  0  0
   -1.3635   -3.3808    6.9102 H   0  0  0  0  0  0  0  0  0  0  0  0
   -0.7867    1.1088    5.8149 H   0  0  0  0  0  0  0  0  0  0  0  0
    2.2233   -3.5615    3.4594 H   0  0  0  0  0  0  0  0  0  0  0  0
    2.5435   -1.3177   -0.7041 H   0  0  0  0  0  0  0  0  0  0  0  0
    1.1976   -0.6250    1.1309 H   0  0  0  0  0  0  0  0  0  0  0  0
    6.2809   -1.1930    2.5888 H   0  0  0  0  0  0  0  0  0  0  0  0
    6.0779    0.0960    1.4038 H   0  0  0  0  0  0  0  0  0  0  0  0
    5.9067   -1.5780    0.9138 H   0  0  0  0  0  0  0  0  0  0  0  0
    1.2369    1.9753    1.6057 H   0  0  0  0  0  0  0  0  0  0  0  0
   -0.1773    2.1315    2.7102 H   0  0  0  0  0  0  0  0  0  0  0  0
    2.1320    2.4172    5.2130 H   0  0  0  0  0  0  0  0  0  0  0  0
    3.3711    2.2539    3.9186 H   0  0  0  0  0  0  0  0  0  0  0  0
    4.2953   -1.5097   -0.5624 H   0  0  0  0  0  0  0  0  0  0  0  0
  1  2  3  0
  1 25  1  0
  2  3  1  0
  3 12  2  0
  3  4  1  0
  4  5  2  0
  4 26  1  0
  5  6  1  0
  5 27  1  0
  6 11  2  0
  6  7  1  0
  7  8  2  0
  8  9  1  0
  8 28  1  0
  9 21  1  0
  9 10  2  0
 10 11  1  0
 10 13  1  0
 11 12  1  0
 12 29  1  0
 13 14  1  0
 13 19  1  0
 13 21  1  6
 14 15  2  0
 14 31  1  0
 15 17  1  0
 15 16  1  0
 16 30  1  0
 16 39  1  0
 17 19  1  0
 17 18  1  0
 18 32  1  0
 18 33  1  0
 18 34  1  0
 19 20  2  0
 21 24  1  0
 21 22  1  0
 22 23  1  0
 22 35  1  0
 22 36  1  0
 23 24  1  0
 24 37  1  0
 24 38  1  0
M  CHG  1  14   1
M  END
>  <i_m_ct_stereo_status>  (12) 
1

>  <s_m_source_file>  (12) 
/var/tmp/pbs.5076255.sched01/tmpgn4o3w3f/0whq8s7pj.sdf

>  <i_m_source_file_index>  (12) 
5

>  <i_lp_mmshare_version>  (12) 
48012

>  <i_f3d_flags>  (12) 
0

>  <s_epik_input>  (12) 
W0NIXSNDYyhbY0hdMSlbY0hdW2NIXWMobltjSF0yKWMxYzNjMkM0KFtDSDJdT1tDSDJdNClbQ0BdMzVOPUMoW05IMl0pTihbQ0gzXSlDNT1P

>  <s_epik_cmdline>  (12) 
J2VwaWtfcHl0aG9uJywgJy1waHQnLCAnMi4wJywgJy1waCcsICc3LjAnLCAnLXRuJywgJzgnLCAnLW1hJywgJzIwMCcsICctaW1hZScsICc8aW5maWxlLm1hZT4nLCAnLW9tYWUnLCAnPG91dGZpbGUubWFlPic=

>  <r_lp_tautomer_probability>  (12) 
1

>  <r_epik_Ionization_Penalty>  (12) 
0.599796

>  <r_epik_Ionization_Penalty_Charging>  (12) 
0.598915

>  <r_epik_Ionization_Penalty_Neutral>  (12) 
0.000880382

>  <r_epik_State_Penalty>  (12) 
0.0386922

>  <r_epik_Charging_Adjusted_Penalty>  (12) 
0.637607

>  <i_epik_Tot_Q>  (12) 
1

>  <i_epik_Tot_abs_Q>  (12) 
1

>  <s_epik_Chemistry_Notes>  (12) 
This compound has an imine and may undergo hydrolysis.

>  <s_lp_Force_Field>  (12) 
OPLS3e

>  <r_lp_Energy>  (12) 
19.4948

>  <b_lp_Chiralities_Consistent>  (12) 
1

>  <s_lp_Variant>  (12) 
3:0-1

>  <s_i_glide_gridfile>  (12) 
pfpi4k_grid

>  <i_i_glide_lignum>  (12) 
5

>  <i_i_glide_rotatable_bonds>  (12) 
1

>  <r_i_docking_score>  (12) 
-3.42097

>  <r_i_glide_ligand_efficiency>  (12) 
-0.142541

>  <r_i_glide_ligand_efficiency_sa>  (12) 
-0.411158

>  <r_i_glide_ligand_efficiency_ln>  (12) 
-0.818796

>  <r_i_glide_gscore>  (12) 
-3.42097

>  <r_i_glide_lipo>  (12) 
-0.133462

>  <r_i_glide_hbond>  (12) 
-0.3387

>  <r_i_glide_metal>  (12) 
-0

>  <r_i_glide_rewards>  (12) 
-1.33036

>  <r_i_glide_evdw>  (12) 
-16.2175

>  <r_i_glide_ecoul>  (12) 
-5.42547

>  <r_i_glide_erotb>  (12) 
0.182959

>  <r_i_glide_esite>  (12) 
-0.176716

>  <r_i_glide_emodel>  (12) 
-28.9769

>  <r_i_glide_energy>  (12) 
-21.6429

>  <r_i_glide_einternal>  (12) 
0.035109

>  <r_i_glide_intrahb_reward>  (12) 
-0

>  <i_i_glide_confnum>  (12) 
2

>  <i_i_glide_posenum>  (12) 
7

>  <r_i_glide_eff_state_penalty>  (12) 
0

>  <ligand_id>  (12) 
3

>  <original_smiles>  (12) 
C#Cc1ccc2ncc3c(c2c1)C1(N=C(N)N(C)C1=O)C31COC1

>  <smiles>  (12) 
[H]C#Cc1c([H])c([H])c2nc([H])c3c(c2c1[H])C1(C(=O)N(C([H])([H])[H])C(N([H])[H])=[N+]1[H])C31C([H])([H])OC1([H])[H]

$$$$
3:1:0
     RDKit          3D

 38 42  0  0  1  0  0  0  0  0999 V2000
    4.1352   -0.2570   -4.0243 C   0  0  0  0  0  0  0  0  0  0  0  0
    4.1705   -1.0441   -3.0905 C   0  0  0  0  0  0  0  0  0  0  0  0
    4.1973   -1.9691   -1.9746 C   0  0  0  0  0  0  0  0  0  0  0  0
    4.7698   -3.2479   -2.1318 C   0  0  0  0  0  0  0  0  0  0  0  0
    4.7746   -4.1537   -1.0486 C   0  0  0  0  0  0  0  0  0  0  0  0
    4.2267   -3.8209    0.2102 C   0  0  0  0  0  0  0  0  0  0  0  0
    4.2570   -4.7481    1.2281 N   0  0  0  0  0  0  0  0  0  0  0  0
    3.7479   -4.4725    2.4688 C   0  0  0  0  0  0  0  0  0  0  0  0
    3.1785   -3.2146    2.6658 C   0  0  0  0  0  0  0  0  0  0  0  0
    3.1321   -2.2469    1.6182 C   0  0  0  0  0  0  0  0  0  0  0  0
    3.6602   -2.5166    0.3490 C   0  0  0  0  0  0  0  0  0  0  0  0
    3.6409   -1.6093   -0.7270 C   0  0  0  0  0  0  0  0  0  0  0  0
    2.4225   -1.2238    2.4882 C   0  0  2  0  0  0  0  0  0  0  0  0
    1.1028   -0.7756    2.1087 N   0  0  0  0  0  0  0  0  0  0  0  0
    1.0251    0.6067    2.2083 C   0  0  0  0  0  0  0  0  0  0  0  0
   -0.0105    1.3307    1.9774 N   0  0  0  0  0  0  0  0  0  0  0  0
    2.2837    1.0763    2.5954 N   0  0  0  0  0  0  0  0  0  0  0  0
    2.5676    2.4843    2.8612 C   0  0  0  0  0  0  0  0  0  0  0  0
    3.1644    0.0746    2.7515 C   0  0  0  0  0  0  0  0  0  0  0  0
    4.3454    0.1471    3.0921 O   0  0  0  0  0  0  0  0  0  0  0  0
    2.4854   -2.3217    3.6706 C   0  0  0  0  0  0  0  0  0  0  0  0
    3.1045   -2.0773    5.0457 C   0  0  0  0  0  0  0  0  0  0  0  0
    1.9635   -2.6811    5.7152 O   0  0  0  0  0  0  0  0  0  0  0  0
    1.2612   -2.7943    4.4455 C   0  0  0  0  0  0  0  0  0  0  0  0
    4.1103    0.4465   -4.8281 H   0  0  0  0  0  0  0  0  0  0  0  0
    5.1870   -3.5510   -3.0831 H   0  0  0  0  0  0  0  0  0  0  0  0
    5.1946   -5.1337   -1.1884 H   0  0  0  0  0  0  0  0  0  0  0  0
    3.8090   -5.2247    3.2455 H   0  0  0  0  0  0  0  0  0  0  0  0
    3.1606   -0.6600   -0.6042 H   0  0  0  0  0  0  0  0  0  0  0  0
    0.1777    2.3258    2.0127 H   0  0  0  0  0  0  0  0  0  0  0  0
    0.5988   -1.2954    1.4047 H   0  0  0  0  0  0  0  0  0  0  0  0
    2.9410    2.6150    3.8740 H   0  0  0  0  0  0  0  0  0  0  0  0
    1.7313    3.1681    2.7107 H   0  0  0  0  0  0  0  0  0  0  0  0
    3.3593    2.8050    2.2018 H   0  0  0  0  0  0  0  0  0  0  0  0
    4.0299   -2.6300    5.2166 H   0  0  0  0  0  0  0  0  0  0  0  0
    3.2151   -1.0260    5.3091 H   0  0  0  0  0  0  0  0  0  0  0  0
    0.4152   -2.1096    4.3873 H   0  0  0  0  0  0  0  0  0  0  0  0
    0.9684   -3.8213    4.2263 H   0  0  0  0  0  0  0  0  0  0  0  0
  1  2  3  0
  1 25  1  0
  2  3  1  0
  3 12  2  0
  3  4  1  0
  4  5  2  0
  4 26  1  0
  5  6  1  0
  5 27  1  0
  6 11  2  0
  6  7  1  0
  7  8  2  0
  8  9  1  0
  8 28  1  0
  9 21  1  0
  9 10  2  0
 10 11  1  0
 10 13  1  0
 11 12  1  0
 12 29  1  0
 13 14  1  6
 13 19  1  0
 13 21  1  0
 14 15  1  0
 14 31  1  0
 15 17  1  0
 15 16  2  0
 16 30  1  0
 17 19  1  0
 17 18  1  0
 18 32  1  0
 18 33  1  0
 18 34  1  0
 19 20  2  0
 21 24  1  0
 21 22  1  0
 22 23  1  0
 22 35  1  0
 22 36  1  0
 23 24  1  0
 24 37  1  0
 24 38  1  0
M  END
>  <i_m_ct_stereo_status>  (13) 
1

>  <s_m_source_file>  (13) 
/var/tmp/pbs.5076255.sched01/tmpgn4o3w3f/0whq8s7pj.sdf

>  <i_m_source_file_index>  (13) 
6

>  <i_lp_mmshare_version>  (13) 
48012

>  <i_f3d_flags>  (13) 
0

>  <s_epik_input>  (13) 
W0NIXSNDYyhbY0hdMSlbY0hdW2NIXWMobltjSF0yKWMxYzNjMkM0KFtDSDJdT1tDSDJdNClbQ0BdMzVOPUMoW05IMl0pTihbQ0gzXSlDNT1P

>  <s_epik_cmdline>  (13) 
J2VwaWtfcHl0aG9uJywgJy1waHQnLCAnMi4wJywgJy1waCcsICc3LjAnLCAnLXRuJywgJzgnLCAnLW1hJywgJzIwMCcsICctaW1hZScsICc8aW5maWxlLm1hZT4nLCAnLW9tYWUnLCAnPG91dGZpbGUubWFlPic=

>  <r_lp_tautomer_probability>  (13) 
0.49964

>  <r_epik_Ionization_Penalty>  (13) 
5.81036

>  <r_epik_Ionization_Penalty_Charging>  (13) 
0

>  <r_epik_Ionization_Penalty_Neutral>  (13) 
5.81036

>  <r_epik_State_Penalty>  (13) 
2.04807

>  <r_epik_Charging_Adjusted_Penalty>  (13) 
2.04807

>  <i_epik_Tot_Q>  (13) 
0

>  <i_epik_Tot_abs_Q>  (13) 
0

>  <s_epik_Chemistry_Notes>  (13) 
This compound has an imine and may undergo hydrolysis.

>  <s_lp_Force_Field>  (13) 
OPLS3e

>  <r_lp_Energy>  (13) 
20.8299

>  <b_lp_Chiralities_Consistent>  (13) 
1

>  <s_lp_Variant>  (13) 
3:0-2

>  <s_i_glide_gridfile>  (13) 
pfpi4k_grid

>  <i_i_glide_lignum>  (13) 
6

>  <i_i_glide_rotatable_bonds>  (13) 
1

>  <r_i_docking_score>  (13) 
-3.47712

>  <r_i_glide_ligand_efficiency>  (13) 
-0.14488

>  <r_i_glide_ligand_efficiency_sa>  (13) 
-0.417907

>  <r_i_glide_ligand_efficiency_ln>  (13) 
-0.832235

>  <r_i_glide_gscore>  (13) 
-3.47712

>  <r_i_glide_lipo>  (13) 
-0.436481

>  <r_i_glide_hbond>  (13) 
-0.0778405

>  <r_i_glide_metal>  (13) 
-0

>  <r_i_glide_rewards>  (13) 
-1.27112

>  <r_i_glide_evdw>  (13) 
-24.7051

>  <r_i_glide_ecoul>  (13) 
-3.75935

>  <r_i_glide_erotb>  (13) 
0.18398

>  <r_i_glide_esite>  (13) 
-0.0765066

>  <r_i_glide_emodel>  (13) 
-34.5667

>  <r_i_glide_energy>  (13) 
-28.4644

>  <r_i_glide_einternal>  (13) 
0.0252733

>  <r_i_glide_intrahb_reward>  (13) 
-0

>  <i_i_glide_confnum>  (13) 
2

>  <i_i_glide_posenum>  (13) 
38

>  <r_i_glide_eff_state_penalty>  (13) 
0

>  <ligand_id>  (13) 
3

>  <original_smiles>  (13) 
C#Cc1ccc2ncc3c(c2c1)C1(N=C(N)N(C)C1=O)C31COC1

>  <smiles>  (13) 
[H]C#Cc1c([H])c([H])c2nc([H])c3c(c2c1[H])C1(C(=O)N(C([H])([H])[H])C(=N[H])N1[H])C31C([H])([H])OC1([H])[H]

$$$$
3:1:1
     RDKit          3D

 38 42  0  0  1  0  0  0  0  0999 V2000
    4.1823   -0.7677   -3.2359 C   0  0  0  0  0  0  0  0  0  0  0  0
    4.1275   -1.4053   -2.1976 C   0  0  0  0  0  0  0  0  0  0  0  0
    4.0463   -2.1377   -0.9480 C   0  0  0  0  0  0  0  0  0  0  0  0
    4.6021   -3.4346   -0.8583 C   0  0  0  0  0  0  0  0  0  0  0  0
    4.5211   -4.1544    0.3540 C   0  0  0  0  0  0  0  0  0  0  0  0
    3.9014   -3.6079    1.5010 C   0  0  0  0  0  0  0  0  0  0  0  0
    3.8511   -4.3533    2.6570 N   0  0  0  0  0  0  0  0  0  0  0  0
    3.2659   -3.8723    3.7975 C   0  0  0  0  0  0  0  0  0  0  0  0
    2.7088   -2.5951    3.7482 C   0  0  0  0  0  0  0  0  0  0  0  0
    2.7529   -1.8126    2.5578 C   0  0  0  0  0  0  0  0  0  0  0  0
    3.3486   -2.2908    1.3845 C   0  0  0  0  0  0  0  0  0  0  0  0
    3.4241   -1.5615    0.1785 C   0  0  0  0  0  0  0  0  0  0  0  0
    2.0046   -0.6583    3.1976 C   0  0  2  0  0  0  0  0  0  0  0  0
    0.7210   -0.2825    2.6567 N   0  0  0  0  0  0  0  0  0  0  0  0
    0.6516    1.0899    2.5212 C   0  0  0  0  0  0  0  0  0  0  0  0
   -0.3631    1.7418    2.0908 N   0  0  0  0  0  0  0  0  0  0  0  0
    1.8864    1.6280    2.9085 N   0  0  0  0  0  0  0  0  0  0  0  0
    2.1919    3.0576    2.9543 C   0  0  0  0  0  0  0  0  0  0  0  0
    2.7412    0.6685    3.2935 C   0  0  0  0  0  0  0  0  0  0  0  0
    3.8924    0.8108    3.7034 O   0  0  0  0  0  0  0  0  0  0  0  0
    1.9662   -1.5451    4.5451 C   0  0  0  0  0  0  0  0  0  0  0  0
    2.4941   -1.0793    5.9011 C   0  0  0  0  0  0  0  0  0  0  0  0
    1.2984   -1.5561    6.5787 O   0  0  0  0  0  0  0  0  0  0  0  0
    0.6829   -1.8738    5.2994 C   0  0  0  0  0  0  0  0  0  0  0  0
    4.2068   -0.2054   -4.1446 H   0  0  0  0  0  0  0  0  0  0  0  0
    5.0801   -3.8886   -1.7145 H   0  0  0  0  0  0  0  0  0  0  0  0
    4.9487   -5.1421    0.4066 H   0  0  0  0  0  0  0  0  0  0  0  0
    3.2623   -4.4857    4.6891 H   0  0  0  0  0  0  0  0  0  0  0  0
    2.9726   -0.5796    0.1010 H   0  0  0  0  0  0  0  0  0  0  0  0
   -0.1603    2.7330    1.9712 H   0  0  0  0  0  0  0  0  0  0  0  0
    0.1997   -0.9277    2.0812 H   0  0  0  0  0  0  0  0  0  0  0  0
    2.4965    3.3516    3.9582 H   0  0  0  0  0  0  0  0  0  0  0  0
    1.3843    3.7165    2.6454 H   0  0  0  0  0  0  0  0  0  0  0  0
    3.0372    3.2605    2.3065 H   0  0  0  0  0  0  0  0  0  0  0  0
    3.3946   -1.6038    6.2265 H   0  0  0  0  0  0  0  0  0  0  0  0
    2.6064    0.0008    5.9986 H   0  0  0  0  0  0  0  0  0  0  0  0
   -0.1470   -1.2031    5.0743 H   0  0  0  0  0  0  0  0  0  0  0  0
    0.3888   -2.9218    5.2346 H   0  0  0  0  0  0  0  0  0  0  0  0
  1  2  3  0
  1 25  1  0
  2  3  1  0
  3 12  2  0
  3  4  1  0
  4  5  2  0
  4 26  1  0
  5  6  1  0
  5 27  1  0
  6 11  2  0
  6  7  1  0
  7  8  2  0
  8  9  1  0
  8 28  1  0
  9 21  1  0
  9 10  2  0
 10 11  1  0
 10 13  1  0
 11 12  1  0
 12 29  1  0
 13 14  1  6
 13 19  1  0
 13 21  1  0
 14 15  1  0
 14 31  1  0
 15 17  1  0
 15 16  2  0
 16 30  1  0
 17 19  1  0
 17 18  1  0
 18 32  1  0
 18 33  1  0
 18 34  1  0
 19 20  2  0
 21 24  1  0
 21 22  1  0
 22 23  1  0
 22 35  1  0
 22 36  1  0
 23 24  1  0
 24 37  1  0
 24 38  1  0
M  END
>  <i_m_ct_stereo_status>  (14) 
1

>  <s_m_source_file>  (14) 
/var/tmp/pbs.5076255.sched01/tmpgn4o3w3f/0whq8s7pj.sdf

>  <i_m_source_file_index>  (14) 
6

>  <i_lp_mmshare_version>  (14) 
48012

>  <i_f3d_flags>  (14) 
0

>  <s_epik_input>  (14) 
W0NIXSNDYyhbY0hdMSlbY0hdW2NIXWMobltjSF0yKWMxYzNjMkM0KFtDSDJdT1tDSDJdNClbQ0BdMzVOPUMoW05IMl0pTihbQ0gzXSlDNT1P

>  <s_epik_cmdline>  (14) 
J2VwaWtfcHl0aG9uJywgJy1waHQnLCAnMi4wJywgJy1waCcsICc3LjAnLCAnLXRuJywgJzgnLCAnLW1hJywgJzIwMCcsICctaW1hZScsICc8aW5maWxlLm1hZT4nLCAnLW9tYWUnLCAnPG91dGZpbGUubWFlPic=

>  <r_lp_tautomer_probability>  (14) 
0.49964

>  <r_epik_Ionization_Penalty>  (14) 
5.81036

>  <r_epik_Ionization_Penalty_Charging>  (14) 
0

>  <r_epik_Ionization_Penalty_Neutral>  (14) 
5.81036

>  <r_epik_State_Penalty>  (14) 
2.04807

>  <r_epik_Charging_Adjusted_Penalty>  (14) 
2.04807

>  <i_epik_Tot_Q>  (14) 
0

>  <i_epik_Tot_abs_Q>  (14) 
0

>  <s_epik_Chemistry_Notes>  (14) 
This compound has an imine and may undergo hydrolysis.

>  <s_lp_Force_Field>  (14) 
OPLS3e

>  <r_lp_Energy>  (14) 
20.8299

>  <b_lp_Chiralities_Consistent>  (14) 
1

>  <s_lp_Variant>  (14) 
3:0-2

>  <s_i_glide_gridfile>  (14) 
pfpi4k_grid

>  <i_i_glide_lignum>  (14) 
6

>  <i_i_glide_rotatable_bonds>  (14) 
1

>  <r_i_docking_score>  (14) 
-3.30235

>  <r_i_glide_ligand_efficiency>  (14) 
-0.137598

>  <r_i_glide_ligand_efficiency_sa>  (14) 
-0.396901

>  <r_i_glide_ligand_efficiency_ln>  (14) 
-0.790403

>  <r_i_glide_gscore>  (14) 
-3.30235

>  <r_i_glide_lipo>  (14) 
-0.244082

>  <r_i_glide_hbond>  (14) 
-0.156257

>  <r_i_glide_metal>  (14) 
-0

>  <r_i_glide_rewards>  (14) 
-1.23866

>  <r_i_glide_evdw>  (14) 
-23.4419

>  <r_i_glide_ecoul>  (14) 
-4.23684

>  <r_i_glide_erotb>  (14) 
0.18398

>  <r_i_glide_esite>  (14) 
-0.0397052

>  <r_i_glide_emodel>  (14) 
-33.4627

>  <r_i_glide_energy>  (14) 
-27.6787

>  <r_i_glide_einternal>  (14) 
0.0252919

>  <r_i_glide_intrahb_reward>  (14) 
-0

>  <i_i_glide_confnum>  (14) 
2

>  <i_i_glide_posenum>  (14) 
32

>  <r_i_glide_eff_state_penalty>  (14) 
0

>  <ligand_id>  (14) 
3

>  <original_smiles>  (14) 
C#Cc1ccc2ncc3c(c2c1)C1(N=C(N)N(C)C1=O)C31COC1

>  <smiles>  (14) 
[H]C#Cc1c([H])c([H])c2nc([H])c3c(c2c1[H])C1(C(=O)N(C([H])([H])[H])C(=N[H])N1[H])C31C([H])([H])OC1([H])[H]

$$$$
3:1:2
     RDKit          3D

 38 42  0  0  1  0  0  0  0  0999 V2000
   -0.5347    1.7143    2.4136 C   0  0  0  0  0  0  0  0  0  0  0  0
    0.1983    0.8151    2.7895 C   0  0  0  0  0  0  0  0  0  0  0  0
    1.0902   -0.2422    3.2264 C   0  0  0  0  0  0  0  0  0  0  0  0
    1.1412   -0.5887    4.5946 C   0  0  0  0  0  0  0  0  0  0  0  0
    1.9987   -1.6189    5.0293 C   0  0  0  0  0  0  0  0  0  0  0  0
    2.8147   -2.3340    4.1246 C   0  0  0  0  0  0  0  0  0  0  0  0
    3.6311   -3.3353    4.5992 N   0  0  0  0  0  0  0  0  0  0  0  0
    4.4374   -4.0633    3.7717 C   0  0  0  0  0  0  0  0  0  0  0  0
    4.4056   -3.7565    2.4104 C   0  0  0  0  0  0  0  0  0  0  0  0
    3.5655   -2.7231    1.9004 C   0  0  0  0  0  0  0  0  0  0  0  0
    2.7375   -1.9644    2.7387 C   0  0  0  0  0  0  0  0  0  0  0  0
    1.8930   -0.9266    2.2916 C   0  0  0  0  0  0  0  0  0  0  0  0
    4.0482   -2.9228    0.4773 C   0  0  2  0  0  0  0  0  0  0  0  0
    4.7129   -1.8205   -0.1854 N   0  0  0  0  0  0  0  0  0  0  0  0
    4.2101   -1.6830   -1.4701 C   0  0  0  0  0  0  0  0  0  0  0  0
    4.5926   -0.8170   -2.3391 N   0  0  0  0  0  0  0  0  0  0  0  0
    3.2089   -2.6462   -1.6519 N   0  0  0  0  0  0  0  0  0  0  0  0
    2.4323   -2.8126   -2.8837 C   0  0  0  0  0  0  0  0  0  0  0  0
    3.0211   -3.3675   -0.5439 C   0  0  0  0  0  0  0  0  0  0  0  0
    2.2014   -4.2632   -0.3567 O   0  0  0  0  0  0  0  0  0  0  0  0
    4.9911   -4.1008    1.0569 C   0  0  0  0  0  0  0  0  0  0  0  0
    4.9757   -5.5492    0.5577 C   0  0  0  0  0  0  0  0  0  0  0  0
    6.4261   -5.5842    0.5050 O   0  0  0  0  0  0  0  0  0  0  0  0
    6.4928   -4.1666    0.8201 C   0  0  0  0  0  0  0  0  0  0  0  0
   -1.1498    2.5203    2.0807 H   0  0  0  0  0  0  0  0  0  0  0  0
    0.5269   -0.0621    5.3164 H   0  0  0  0  0  0  0  0  0  0  0  0
    2.0318   -1.8743    6.0769 H   0  0  0  0  0  0  0  0  0  0  0  0
    5.0594   -4.8463    4.1882 H   0  0  0  0  0  0  0  0  0  0  0  0
    1.8424   -0.6592    1.2437 H   0  0  0  0  0  0  0  0  0  0  0  0
    4.0374   -0.8769   -3.1843 H   0  0  0  0  0  0  0  0  0  0  0  0
    5.1512   -1.0841    0.3465 H   0  0  0  0  0  0  0  0  0  0  0  0
    2.5044   -3.8366   -3.2398 H   0  0  0  0  0  0  0  0  0  0  0  0
    2.7076   -2.1445   -3.7007 H   0  0  0  0  0  0  0  0  0  0  0  0
    1.3855   -2.6552   -2.6611 H   0  0  0  0  0  0  0  0  0  0  0  0
    4.5701   -6.2592    1.2784 H   0  0  0  0  0  0  0  0  0  0  0  0
    4.5355   -5.6872   -0.4284 H   0  0  0  0  0  0  0  0  0  0  0  0
    6.8280   -3.5769   -0.0317 H   0  0  0  0  0  0  0  0  0  0  0  0
    7.0872   -3.9700    1.7095 H   0  0  0  0  0  0  0  0  0  0  0  0
  1  2  3  0
  1 25  1  0
  2  3  1  0
  3 12  2  0
  3  4  1  0
  4  5  2  0
  4 26  1  0
  5  6  1  0
  5 27  1  0
  6 11  2  0
  6  7  1  0
  7  8  2  0
  8  9  1  0
  8 28  1  0
  9 21  1  0
  9 10  2  0
 10 11  1  0
 10 13  1  0
 11 12  1  0
 12 29  1  0
 13 14  1  6
 13 19  1  0
 13 21  1  0
 14 15  1  0
 14 31  1  0
 15 17  1  0
 15 16  2  0
 16 30  1  0
 17 19  1  0
 17 18  1  0
 18 32  1  0
 18 33  1  0
 18 34  1  0
 19 20  2  0
 21 24  1  0
 21 22  1  0
 22 23  1  0
 22 35  1  0
 22 36  1  0
 23 24  1  0
 24 37  1  0
 24 38  1  0
M  END
>  <i_m_ct_stereo_status>  (15) 
1

>  <s_m_source_file>  (15) 
/var/tmp/pbs.5076255.sched01/tmpgn4o3w3f/0whq8s7pj.sdf

>  <i_m_source_file_index>  (15) 
6

>  <i_lp_mmshare_version>  (15) 
48012

>  <i_f3d_flags>  (15) 
0

>  <s_epik_input>  (15) 
W0NIXSNDYyhbY0hdMSlbY0hdW2NIXWMobltjSF0yKWMxYzNjMkM0KFtDSDJdT1tDSDJdNClbQ0BdMzVOPUMoW05IMl0pTihbQ0gzXSlDNT1P

>  <s_epik_cmdline>  (15) 
J2VwaWtfcHl0aG9uJywgJy1waHQnLCAnMi4wJywgJy1waCcsICc3LjAnLCAnLXRuJywgJzgnLCAnLW1hJywgJzIwMCcsICctaW1hZScsICc8aW5maWxlLm1hZT4nLCAnLW9tYWUnLCAnPG91dGZpbGUubWFlPic=

>  <r_lp_tautomer_probability>  (15) 
0.49964

>  <r_epik_Ionization_Penalty>  (15) 
5.81036

>  <r_epik_Ionization_Penalty_Charging>  (15) 
0

>  <r_epik_Ionization_Penalty_Neutral>  (15) 
5.81036

>  <r_epik_State_Penalty>  (15) 
2.04807

>  <r_epik_Charging_Adjusted_Penalty>  (15) 
2.04807

>  <i_epik_Tot_Q>  (15) 
0

>  <i_epik_Tot_abs_Q>  (15) 
0

>  <s_epik_Chemistry_Notes>  (15) 
This compound has an imine and may undergo hydrolysis.

>  <s_lp_Force_Field>  (15) 
OPLS3e

>  <r_lp_Energy>  (15) 
20.8299

>  <b_lp_Chiralities_Consistent>  (15) 
1

>  <s_lp_Variant>  (15) 
3:0-2

>  <s_i_glide_gridfile>  (15) 
pfpi4k_grid

>  <i_i_glide_lignum>  (15) 
6

>  <i_i_glide_rotatable_bonds>  (15) 
1

>  <r_i_docking_score>  (15) 
-3.00105

>  <r_i_glide_ligand_efficiency>  (15) 
-0.125044

>  <r_i_glide_ligand_efficiency_sa>  (15) 
-0.360688

>  <r_i_glide_ligand_efficiency_ln>  (15) 
-0.718288

>  <r_i_glide_gscore>  (15) 
-3.00105

>  <r_i_glide_lipo>  (15) 
-0.296035

>  <r_i_glide_hbond>  (15) 
0

>  <r_i_glide_metal>  (15) 
-0

>  <r_i_glide_rewards>  (15) 
-1.29621

>  <r_i_glide_evdw>  (15) 
-25.4727

>  <r_i_glide_ecoul>  (15) 
-1.79273

>  <r_i_glide_erotb>  (15) 
0.18398

>  <r_i_glide_esite>  (15) 
-0.0502352

>  <r_i_glide_emodel>  (15) 
-32.6294

>  <r_i_glide_energy>  (15) 
-27.2654

>  <r_i_glide_einternal>  (15) 
0.0252774

>  <r_i_glide_intrahb_reward>  (15) 
-0

>  <i_i_glide_confnum>  (15) 
2

>  <i_i_glide_posenum>  (15) 
9

>  <r_i_glide_eff_state_penalty>  (15) 
0

>  <ligand_id>  (15) 
3

>  <original_smiles>  (15) 
C#Cc1ccc2ncc3c(c2c1)C1(N=C(N)N(C)C1=O)C31COC1

>  <smiles>  (15) 
[H]C#Cc1c([H])c([H])c2nc([H])c3c(c2c1[H])C1(C(=O)N(C([H])([H])[H])C(=N[H])N1[H])C31C([H])([H])OC1([H])[H]

$$$$
3:2:0
     RDKit          3D

 38 42  0  0  1  0  0  0  0  0999 V2000
    2.9258    0.1578   -4.3656 C   0  0  0  0  0  0  0  0  0  0  0  0
    3.3346   -0.6923   -3.5930 C   0  0  0  0  0  0  0  0  0  0  0  0
    3.8130   -1.7020   -2.6729 C   0  0  0  0  0  0  0  0  0  0  0  0
    4.5287   -2.8045   -3.1795 C   0  0  0  0  0  0  0  0  0  0  0  0
    5.0044   -3.7962   -2.3016 C   0  0  0  0  0  0  0  0  0  0  0  0
    4.7864   -3.7301   -0.9091 C   0  0  0  0  0  0  0  0  0  0  0  0
    5.2725   -4.7291   -0.0993 N   0  0  0  0  0  0  0  0  0  0  0  0
    5.0910   -4.7097    1.2538 C   0  0  0  0  0  0  0  0  0  0  0  0
    4.3829   -3.6343    1.7945 C   0  0  0  0  0  0  0  0  0  0  0  0
    3.8730   -2.5893    0.9692 C   0  0  0  0  0  0  0  0  0  0  0  0
    4.0515   -2.5988   -0.4191 C   0  0  0  0  0  0  0  0  0  0  0  0
    3.5741   -1.5976   -1.2846 C   0  0  0  0  0  0  0  0  0  0  0  0
    3.2704   -1.8527    2.1437 C   0  0  2  0  0  0  0  0  0  0  0  0
    1.8353   -1.6675    2.1670 N   0  0  0  0  0  0  0  0  0  0  0  0
    1.5546   -0.3593    2.5233 C   0  0  0  0  0  0  0  0  0  0  0  0
    0.3963    0.1697    2.6876 N   0  0  0  0  0  0  0  0  0  0  0  0
    2.7617    0.3240    2.6756 N   0  0  0  0  0  0  0  0  0  0  0  0
    2.8504    1.7307    3.0736 C   0  0  0  0  0  0  0  0  0  0  0  0
    3.8098   -0.4656    2.4295 C   0  0  0  0  0  0  0  0  0  0  0  0
    5.0031   -0.1691    2.4663 O   0  0  0  0  0  0  0  0  0  0  0  0
    3.8545   -3.0342    3.0767 C   0  0  0  0  0  0  0  0  0  0  0  0
    4.7858   -2.8087    4.2688 C   0  0  0  0  0  0  0  0  0  0  0  0
    4.0066   -3.7126    5.0927 O   0  0  0  0  0  0  0  0  0  0  0  0
    3.0042   -3.8373    4.0517 C   0  0  0  0  0  0  0  0  0  0  0  0
    2.5469    0.9369   -4.9907 H   0  0  0  0  0  0  0  0  0  0  0  0
    4.7028   -2.9027   -4.2400 H   0  0  0  0  0  0  0  0  0  0  0  0
    5.5172   -4.6468   -2.7113 H   0  0  0  0  0  0  0  0  0  0  0  0
    5.4964   -5.5129    1.8528 H   0  0  0  0  0  0  0  0  0  0  0  0
    3.0175   -0.7574   -0.8932 H   0  0  0  0  0  0  0  0  0  0  0  0
    1.2405   -2.2580    1.6044 H   0  0  0  0  0  0  0  0  0  0  0  0
    3.4577    1.8359    3.9685 H   0  0  0  0  0  0  0  0  0  0  0  0
    1.8951    2.2283    3.2535 H   0  0  0  0  0  0  0  0  0  0  0  0
    3.3572    2.2841    2.2848 H   0  0  0  0  0  0  0  0  0  0  0  0
    5.8025   -3.1679    4.1061 H   0  0  0  0  0  0  0  0  0  0  0  0
    4.7800   -1.7936    4.6678 H   0  0  0  0  0  0  0  0  0  0  0  0
    2.0703   -3.3483    4.3285 H   0  0  0  0  0  0  0  0  0  0  0  0
    2.8508   -4.8732    3.7490 H   0  0  0  0  0  0  0  0  0  0  0  0
   -0.3343   -0.4983    2.5024 H   0  0  0  0  0  0  0  0  0  0  0  0
  1  2  3  0
  1 25  1  0
  2  3  1  0
  3 12  2  0
  3  4  1  0
  4  5  2  0
  4 26  1  0
  5  6  1  0
  5 27  1  0
  6 11  2  0
  6  7  1  0
  7  8  2  0
  8  9  1  0
  8 28  1  0
  9 21  1  0
  9 10  2  0
 10 11  1  0
 10 13  1  0
 11 12  1  0
 12 29  1  0
 13 14  1  6
 13 19  1  0
 13 21  1  0
 14 15  1  0
 14 30  1  0
 15 17  1  0
 15 16  2  0
 16 38  1  0
 17 19  1  0
 17 18  1  0
 18 31  1  0
 18 32  1  0
 18 33  1  0
 19 20  2  0
 21 24  1  0
 21 22  1  0
 22 23  1  0
 22 34  1  0
 22 35  1  0
 23 24  1  0
 24 36  1  0
 24 37  1  0
M  END
>  <i_m_ct_stereo_status>  (16) 
1

>  <s_m_source_file>  (16) 
/var/tmp/pbs.5076255.sched01/tmpgn4o3w3f/0whq8s7pj.sdf

>  <i_m_source_file_index>  (16) 
7

>  <i_lp_mmshare_version>  (16) 
48012

>  <i_f3d_flags>  (16) 
0

>  <s_epik_input>  (16) 
W0NIXSNDYyhbY0hdMSlbY0hdW2NIXWMobltjSF0yKWMxYzNjMkM0KFtDSDJdT1tDSDJdNClbQ0BdMzVOPUMoW05IMl0pTihbQ0gzXSlDNT1P

>  <s_epik_cmdline>  (16) 
J2VwaWtfcHl0aG9uJywgJy1waHQnLCAnMi4wJywgJy1waCcsICc3LjAnLCAnLXRuJywgJzgnLCAnLW1hJywgJzIwMCcsICctaW1hZScsICc8aW5maWxlLm1hZT4nLCAnLW9tYWUnLCAnPG91dGZpbGUubWFlPic=

>  <r_lp_tautomer_probability>  (16) 
0.49964

>  <r_epik_Ionization_Penalty>  (16) 
5.81036

>  <r_epik_Ionization_Penalty_Charging>  (16) 
0

>  <r_epik_Ionization_Penalty_Neutral>  (16) 
5.81036

>  <r_epik_State_Penalty>  (16) 
2.04807

>  <r_epik_Charging_Adjusted_Penalty>  (16) 
2.04807

>  <i_epik_Tot_Q>  (16) 
0

>  <i_epik_Tot_abs_Q>  (16) 
0

>  <s_epik_Chemistry_Notes>  (16) 
This compound has an imine and may undergo hydrolysis.

>  <s_lp_Force_Field>  (16) 
OPLS3e

>  <r_lp_Energy>  (16) 
21.3672

>  <b_lp_Chiralities_Consistent>  (16) 
1

>  <s_lp_Variant>  (16) 
3:0-3

>  <s_i_glide_gridfile>  (16) 
pfpi4k_grid

>  <i_i_glide_lignum>  (16) 
7

>  <i_i_glide_rotatable_bonds>  (16) 
1

>  <r_i_docking_score>  (16) 
-3.6418

>  <r_i_glide_ligand_efficiency>  (16) 
-0.151741

>  <r_i_glide_ligand_efficiency_sa>  (16) 
-0.437698

>  <r_i_glide_ligand_efficiency_ln>  (16) 
-0.871649

>  <r_i_glide_gscore>  (16) 
-3.6418

>  <r_i_glide_lipo>  (16) 
-0.500624

>  <r_i_glide_hbond>  (16) 
-0.0862983

>  <r_i_glide_metal>  (16) 
-0

>  <r_i_glide_rewards>  (16) 
-1.29231

>  <r_i_glide_evdw>  (16) 
-26.1522

>  <r_i_glide_ecoul>  (16) 
-4.00824

>  <r_i_glide_erotb>  (16) 
0.18398

>  <r_i_glide_esite>  (16) 
-0.0376985

>  <r_i_glide_emodel>  (16) 
-36.5376

>  <r_i_glide_energy>  (16) 
-30.1604

>  <r_i_glide_einternal>  (16) 
0.0407959

>  <r_i_glide_intrahb_reward>  (16) 
-0

>  <i_i_glide_confnum>  (16) 
1

>  <i_i_glide_posenum>  (16) 
4

>  <r_i_glide_eff_state_penalty>  (16) 
0

>  <ligand_id>  (16) 
3

>  <original_smiles>  (16) 
C#Cc1ccc2ncc3c(c2c1)C1(N=C(N)N(C)C1=O)C31COC1

>  <smiles>  (16) 
[H]C#Cc1c([H])c([H])c2nc([H])c3c(c2c1[H])C1(C(=O)N(C([H])([H])[H])C(=N[H])N1[H])C31C([H])([H])OC1([H])[H]

$$$$
3:2:1
     RDKit          3D

 38 42  0  0  1  0  0  0  0  0999 V2000
   -1.0603    1.3445    2.2596 C   0  0  0  0  0  0  0  0  0  0  0  0
   -0.1151    0.6607    2.6109 C   0  0  0  0  0  0  0  0  0  0  0  0
    0.9992   -0.1614    3.0345 C   0  0  0  0  0  0  0  0  0  0  0  0
    1.2001   -0.4025    4.4120 C   0  0  0  0  0  0  0  0  0  0  0  0
    2.2774   -1.2075    4.8344 C   0  0  0  0  0  0  0  0  0  0  0  0
    3.1608   -1.8021    3.9072 C   0  0  0  0  0  0  0  0  0  0  0  0
    4.1853   -2.5882    4.3741 N   0  0  0  0  0  0  0  0  0  0  0  0
    5.0603   -3.1996    3.5223 C   0  0  0  0  0  0  0  0  0  0  0  0
    4.8991   -2.9887    2.1543 C   0  0  0  0  0  0  0  0  0  0  0  0
    3.8388   -2.1771    1.6597 C   0  0  0  0  0  0  0  0  0  0  0  0
    2.9323   -1.5460    2.5169 C   0  0  0  0  0  0  0  0  0  0  0  0
    1.8757   -0.7256    2.0781 C   0  0  0  0  0  0  0  0  0  0  0  0
    4.2548   -2.3766    0.2185 C   0  0  2  0  0  0  0  0  0  0  0  0
    4.6446   -1.2091   -0.5424 N   0  0  0  0  0  0  0  0  0  0  0  0
    4.0770   -1.2909   -1.8049 C   0  0  0  0  0  0  0  0  0  0  0  0
    4.2113   -0.4514   -2.7618 N   0  0  0  0  0  0  0  0  0  0  0  0
    3.2718   -2.4322   -1.8580 N   0  0  0  0  0  0  0  0  0  0  0  0
    2.4602   -2.8128   -3.0160 C   0  0  0  0  0  0  0  0  0  0  0  0
    3.2661   -3.0869   -0.6923 C   0  0  0  0  0  0  0  0  0  0  0  0
    2.6117   -4.0855   -0.3873 O   0  0  0  0  0  0  0  0  0  0  0  0
    5.4547   -3.2987    0.7815 C   0  0  0  0  0  0  0  0  0  0  0  0
    5.7128   -4.7452    0.3623 C   0  0  0  0  0  0  0  0  0  0  0  0
    7.1365   -4.4925    0.2114 O   0  0  0  0  0  0  0  0  0  0  0  0
    6.9228   -3.0749    0.4400 C   0  0  0  0  0  0  0  0  0  0  0  0
   -1.8945    1.9414    1.9606 H   0  0  0  0  0  0  0  0  0  0  0  0
    0.5387    0.0317    5.1457 H   0  0  0  0  0  0  0  0  0  0  0  0
    2.4252   -1.3847    5.8877 H   0  0  0  0  0  0  0  0  0  0  0  0
    5.8390   -3.8188    3.9374 H   0  0  0  0  0  0  0  0  0  0  0  0
    1.7372   -0.5326    1.0253 H   0  0  0  0  0  0  0  0  0  0  0  0
    4.9370   -0.3602   -0.0733 H   0  0  0  0  0  0  0  0  0  0  0  0
    2.7241   -3.8208   -3.3359 H   0  0  0  0  0  0  0  0  0  0  0  0
    2.5404   -2.1556   -3.8806 H   0  0  0  0  0  0  0  0  0  0  0  0
    1.4117   -2.8518   -2.7313 H   0  0  0  0  0  0  0  0  0  0  0  0
    5.5035   -5.4761    1.1458 H   0  0  0  0  0  0  0  0  0  0  0  0
    5.2500   -5.0349   -0.5815 H   0  0  0  0  0  0  0  0  0  0  0  0
    7.0819   -2.4912   -0.4680 H   0  0  0  0  0  0  0  0  0  0  0  0
    7.5142   -2.7020    1.2774 H   0  0  0  0  0  0  0  0  0  0  0  0
    4.7732    0.3404   -2.4742 H   0  0  0  0  0  0  0  0  0  0  0  0
  1  2  3  0
  1 25  1  0
  2  3  1  0
  3 12  2  0
  3  4  1  0
  4  5  2  0
  4 26  1  0
  5  6  1  0
  5 27  1  0
  6 11  2  0
  6  7  1  0
  7  8  2  0
  8  9  1  0
  8 28  1  0
  9 21  1  0
  9 10  2  0
 10 11  1  0
 10 13  1  0
 11 12  1  0
 12 29  1  0
 13 14  1  6
 13 19  1  0
 13 21  1  0
 14 15  1  0
 14 30  1  0
 15 17  1  0
 15 16  2  0
 16 38  1  0
 17 19  1  0
 17 18  1  0
 18 31  1  0
 18 32  1  0
 18 33  1  0
 19 20  2  0
 21 24  1  0
 21 22  1  0
 22 23  1  0
 22 34  1  0
 22 35  1  0
 23 24  1  0
 24 36  1  0
 24 37  1  0
M  END
>  <i_m_ct_stereo_status>  (17) 
1

>  <s_m_source_file>  (17) 
/var/tmp/pbs.5076255.sched01/tmpgn4o3w3f/0whq8s7pj.sdf

>  <i_m_source_file_index>  (17) 
7

>  <i_lp_mmshare_version>  (17) 
48012

>  <i_f3d_flags>  (17) 
0

>  <s_epik_input>  (17) 
W0NIXSNDYyhbY0hdMSlbY0hdW2NIXWMobltjSF0yKWMxYzNjMkM0KFtDSDJdT1tDSDJdNClbQ0BdMzVOPUMoW05IMl0pTihbQ0gzXSlDNT1P

>  <s_epik_cmdline>  (17) 
J2VwaWtfcHl0aG9uJywgJy1waHQnLCAnMi4wJywgJy1waCcsICc3LjAnLCAnLXRuJywgJzgnLCAnLW1hJywgJzIwMCcsICctaW1hZScsICc8aW5maWxlLm1hZT4nLCAnLW9tYWUnLCAnPG91dGZpbGUubWFlPic=

>  <r_lp_tautomer_probability>  (17) 
0.49964

>  <r_epik_Ionization_Penalty>  (17) 
5.81036

>  <r_epik_Ionization_Penalty_Charging>  (17) 
0

>  <r_epik_Ionization_Penalty_Neutral>  (17) 
5.81036

>  <r_epik_State_Penalty>  (17) 
2.04807

>  <r_epik_Charging_Adjusted_Penalty>  (17) 
2.04807

>  <i_epik_Tot_Q>  (17) 
0

>  <i_epik_Tot_abs_Q>  (17) 
0

>  <s_epik_Chemistry_Notes>  (17) 
This compound has an imine and may undergo hydrolysis.

>  <s_lp_Force_Field>  (17) 
OPLS3e

>  <r_lp_Energy>  (17) 
21.3672

>  <b_lp_Chiralities_Consistent>  (17) 
1

>  <s_lp_Variant>  (17) 
3:0-3

>  <s_i_glide_gridfile>  (17) 
pfpi4k_grid

>  <i_i_glide_lignum>  (17) 
7

>  <i_i_glide_rotatable_bonds>  (17) 
1

>  <r_i_docking_score>  (17) 
-3.39707

>  <r_i_glide_ligand_efficiency>  (17) 
-0.141545

>  <r_i_glide_ligand_efficiency_sa>  (17) 
-0.408285

>  <r_i_glide_ligand_efficiency_ln>  (17) 
-0.813075

>  <r_i_glide_gscore>  (17) 
-3.39707

>  <r_i_glide_lipo>  (17) 
-0.430607

>  <r_i_glide_hbond>  (17) 
-0.154038

>  <r_i_glide_metal>  (17) 
-0

>  <r_i_glide_rewards>  (17) 
-1.23866

>  <r_i_glide_evdw>  (17) 
-26.4759

>  <r_i_glide_ecoul>  (17) 
-2.32668

>  <r_i_glide_erotb>  (17) 
0.18398

>  <r_i_glide_esite>  (17) 
-0.0849437

>  <r_i_glide_emodel>  (17) 
-34.7174

>  <r_i_glide_energy>  (17) 
-28.8026

>  <r_i_glide_einternal>  (17) 
0.0265521

>  <r_i_glide_intrahb_reward>  (17) 
-0

>  <i_i_glide_confnum>  (17) 
2

>  <i_i_glide_posenum>  (17) 
21

>  <r_i_glide_eff_state_penalty>  (17) 
0

>  <ligand_id>  (17) 
3

>  <original_smiles>  (17) 
C#Cc1ccc2ncc3c(c2c1)C1(N=C(N)N(C)C1=O)C31COC1

>  <smiles>  (17) 
[H]C#Cc1c([H])c([H])c2nc([H])c3c(c2c1[H])C1(C(=O)N(C([H])([H])[H])C(=N[H])N1[H])C31C([H])([H])OC1([H])[H]

$$$$
3:2:2
     RDKit          3D

 38 42  0  0  1  0  0  0  0  0999 V2000
   -0.9141    1.6401    2.0602 C   0  0  0  0  0  0  0  0  0  0  0  0
    0.1640    1.1096    2.2740 C   0  0  0  0  0  0  0  0  0  0  0  0
    1.4219    0.4550    2.5462 C   0  0  0  0  0  0  0  0  0  0  0  0
    1.8749    0.3773    3.8760 C   0  0  0  0  0  0  0  0  0  0  0  0
    3.0790   -0.2910    4.1651 C   0  0  0  0  0  0  0  0  0  0  0  0
    3.8356   -0.9249    3.1450 C   0  0  0  0  0  0  0  0  0  0  0  0
    4.9920   -1.5788    3.4734 N   0  0  0  0  0  0  0  0  0  0  0  0
    5.7268   -2.2055    2.5285 C   0  0  0  0  0  0  0  0  0  0  0  0
    5.3089   -2.1748    1.2161 C   0  0  0  0  0  0  0  0  0  0  0  0
    4.1092   -1.5129    0.8457 C   0  0  0  0  0  0  0  0  0  0  0  0
    3.3323   -0.8299    1.7982 C   0  0  0  0  0  0  0  0  0  0  0  0
    2.1775   -0.1184    1.5063 C   0  0  0  0  0  0  0  0  0  0  0  0
    4.2917   -1.8722   -0.6047 C   0  0  2  0  0  0  0  0  0  0  0  0
    4.4592   -0.7894   -1.5450 N   0  0  0  0  0  0  0  0  0  0  0  0
    3.6950   -1.0875   -2.6587 C   0  0  0  0  0  0  0  0  0  0  0  0
    3.5547   -0.3852   -3.7306 N   0  0  0  0  0  0  0  0  0  0  0  0
    3.0114   -2.2859   -2.4414 N   0  0  0  0  0  0  0  0  0  0  0  0
    2.0301   -2.8377   -3.3751 C   0  0  0  0  0  0  0  0  0  0  0  0
    3.2443   -2.7777   -1.2165 C   0  0  0  0  0  0  0  0  0  0  0  0
    2.7322   -3.7636   -0.6972 O   0  0  0  0  0  0  0  0  0  0  0  0
    5.6598   -2.6179   -0.1749 C   0  0  0  0  0  0  0  0  0  0  0  0
    5.9833   -4.0825   -0.4522 C   0  0  0  0  0  0  0  0  0  0  0  0
    7.3454   -3.7304   -0.8191 O   0  0  0  0  0  0  0  0  0  0  0  0
    7.0269   -2.3207   -0.7838 C   0  0  0  0  0  0  0  0  0  0  0  0
   -1.8395    2.1066    1.8259 H   0  0  0  0  0  0  0  0  0  0  0  0
    1.3036    0.8423    4.6723 H   0  0  0  0  0  0  0  0  0  0  0  0
    3.4369   -0.3402    5.1751 H   0  0  0  0  0  0  0  0  0  0  0  0
    6.5959   -2.7449    2.7969 H   0  0  0  0  0  0  0  0  0  0  0  0
    1.8441   -0.0119    0.4945 H   0  0  0  0  0  0  0  0  0  0  0  0
    4.7381    0.1419   -1.2366 H   0  0  0  0  0  0  0  0  0  0  0  0
    2.3234   -3.8403   -3.6516 H   0  0  0  0  0  0  0  0  0  0  0  0
    1.8869   -2.2630   -4.3030 H   0  0  0  0  0  0  0  0  0  0  0  0
    1.0647   -2.9388   -2.8952 H   0  0  0  0  0  0  0  0  0  0  0  0
    5.9548   -4.7207    0.4274 H   0  0  0  0  0  0  0  0  0  0  0  0
    5.4117   -4.4994   -1.2779 H   0  0  0  0  0  0  0  0  0  0  0  0
    6.9450   -1.8941   -1.7769 H   0  0  0  0  0  0  0  0  0  0  0  0
    7.7075   -1.7846   -0.1273 H   0  0  0  0  0  0  0  0  0  0  0  0
    4.0261    0.4941   -3.6532 H   0  0  0  0  0  0  0  0  0  0  0  0
  1  2  3  0
  1 25  1  0
  2  3  1  0
  3 12  2  0
  3  4  1  0
  4  5  2  0
  4 26  1  0
  5  6  1  0
  5 27  1  0
  6 11  2  0
  6  7  1  0
  7  8  2  0
  8  9  1  0
  8 28  1  0
  9 21  1  0
  9 10  2  0
 10 11  1  0
 10 13  1  0
 11 12  1  0
 12 29  1  0
 13 14  1  6
 13 19  1  0
 13 21  1  0
 14 15  1  0
 14 30  1  0
 15 17  1  0
 15 16  2  0
 16 38  1  0
 17 19  1  0
 17 18  1  0
 18 31  1  0
 18 32  1  0
 18 33  1  0
 19 20  2  0
 21 24  1  0
 21 22  1  0
 22 23  1  0
 22 34  1  0
 22 35  1  0
 23 24  1  0
 24 36  1  0
 24 37  1  0
M  END
>  <i_m_ct_stereo_status>  (18) 
1

>  <s_m_source_file>  (18) 
/var/tmp/pbs.5076255.sched01/tmpgn4o3w3f/0whq8s7pj.sdf

>  <i_m_source_file_index>  (18) 
7

>  <i_lp_mmshare_version>  (18) 
48012

>  <i_f3d_flags>  (18) 
0

>  <s_epik_input>  (18) 
W0NIXSNDYyhbY0hdMSlbY0hdW2NIXWMobltjSF0yKWMxYzNjMkM0KFtDSDJdT1tDSDJdNClbQ0BdMzVOPUMoW05IMl0pTihbQ0gzXSlDNT1P

>  <s_epik_cmdline>  (18) 
J2VwaWtfcHl0aG9uJywgJy1waHQnLCAnMi4wJywgJy1waCcsICc3LjAnLCAnLXRuJywgJzgnLCAnLW1hJywgJzIwMCcsICctaW1hZScsICc8aW5maWxlLm1hZT4nLCAnLW9tYWUnLCAnPG91dGZpbGUubWFlPic=

>  <r_lp_tautomer_probability>  (18) 
0.49964

>  <r_epik_Ionization_Penalty>  (18) 
5.81036

>  <r_epik_Ionization_Penalty_Charging>  (18) 
0

>  <r_epik_Ionization_Penalty_Neutral>  (18) 
5.81036

>  <r_epik_State_Penalty>  (18) 
2.04807

>  <r_epik_Charging_Adjusted_Penalty>  (18) 
2.04807

>  <i_epik_Tot_Q>  (18) 
0

>  <i_epik_Tot_abs_Q>  (18) 
0

>  <s_epik_Chemistry_Notes>  (18) 
This compound has an imine and may undergo hydrolysis.

>  <s_lp_Force_Field>  (18) 
OPLS3e

>  <r_lp_Energy>  (18) 
21.3672

>  <b_lp_Chiralities_Consistent>  (18) 
1

>  <s_lp_Variant>  (18) 
3:0-3

>  <s_i_glide_gridfile>  (18) 
pfpi4k_grid

>  <i_i_glide_lignum>  (18) 
7

>  <i_i_glide_rotatable_bonds>  (18) 
1

>  <r_i_docking_score>  (18) 
-3.37543

>  <r_i_glide_ligand_efficiency>  (18) 
-0.140643

>  <r_i_glide_ligand_efficiency_sa>  (18) 
-0.405684

>  <r_i_glide_ligand_efficiency_ln>  (18) 
-0.807895

>  <r_i_glide_gscore>  (18) 
-3.37543

>  <r_i_glide_lipo>  (18) 
-0.352477

>  <r_i_glide_hbond>  (18) 
-0.32

>  <r_i_glide_metal>  (18) 
-0

>  <r_i_glide_rewards>  (18) 
-1.23866

>  <r_i_glide_evdw>  (18) 
-23.8439

>  <r_i_glide_ecoul>  (18) 
-2.23373

>  <r_i_glide_erotb>  (18) 
0.18398

>  <r_i_glide_esite>  (18) 
-0.121014

>  <r_i_glide_emodel>  (18) 
-31.6715

>  <r_i_glide_energy>  (18) 
-26.0776

>  <r_i_glide_einternal>  (18) 
0.040796

>  <r_i_glide_intrahb_reward>  (18) 
-0

>  <i_i_glide_confnum>  (18) 
1

>  <i_i_glide_posenum>  (18) 
9

>  <r_i_glide_eff_state_penalty>  (18) 
0

>  <ligand_id>  (18) 
3

>  <original_smiles>  (18) 
C#Cc1ccc2ncc3c(c2c1)C1(N=C(N)N(C)C1=O)C31COC1

>  <smiles>  (18) 
[H]C#Cc1c([H])c([H])c2nc([H])c3c(c2c1[H])C1(C(=O)N(C([H])([H])[H])C(=N[H])N1[H])C31C([H])([H])OC1([H])[H]

$$$$
4:0:0
     RDKit          3D

 35 38  0  0  1  0  0  0  0  0999 V2000
    1.2476   -5.7136    3.8474 O   0  0  0  0  0  0  0  0  0  0  0  0
    1.3261   -6.9079    3.5578 C   0  0  0  0  0  0  0  0  0  0  0  0
    0.3205   -7.8905    4.1352 C   0  0  0  0  0  0  0  0  0  0  0  0
   -0.1360   -8.9337    3.1367 C   0  0  0  0  0  0  0  0  0  0  0  0
    1.2413   -9.8904    2.5664 S   0  0  0  0  0  0  0  0  0  0  0  0
    2.0882   -8.6130    1.6967 C   0  0  0  0  0  0  0  0  0  0  0  0
    2.4801   -7.5170    2.7002 C   0  0  1  0  0  0  0  0  0  0  0  0
    3.2243   -6.4393    1.9809 N   0  0  0  0  0  0  0  0  0  0  0  0
    2.5577   -5.7175    1.0350 C   0  0  0  0  0  0  0  0  0  0  0  0
    1.3556   -5.8597    0.7715 O   0  0  0  0  0  0  0  0  0  0  0  0
    3.3072   -4.6694    0.2453 C   0  0  0  0  0  0  0  0  0  0  0  0
    2.6312   -3.8900   -0.7170 C   0  0  0  0  0  0  0  0  0  0  0  0
    3.3130   -2.9450   -1.4948 C   0  0  0  0  0  0  0  0  0  0  0  0
    4.6889   -2.7653   -1.2931 C   0  0  0  0  0  0  0  0  0  0  0  0
    5.4063   -3.5055   -0.3435 C   0  0  0  0  0  0  0  0  0  0  0  0
    6.7751   -3.3692   -0.0893 C   0  0  0  0  0  0  0  0  0  0  0  0
    7.4370   -4.1399    0.8768 C   0  0  0  0  0  0  0  0  0  0  0  0
    6.7089   -5.0837    1.6196 C   0  0  0  0  0  0  0  0  0  0  0  0
    5.3289   -5.2632    1.4104 C   0  0  0  0  0  0  0  0  0  0  0  0
    4.6839   -4.4782    0.4343 C   0  0  0  0  0  0  0  0  0  0  0  0
    4.5507   -6.2799    2.2365 C   0  0  0  0  0  0  0  0  0  0  0  0
    5.1738   -6.9313    3.0844 O   0  0  0  0  0  0  0  0  0  0  0  0
    0.7957   -8.3504    4.9920 H   0  0  0  0  0  0  0  0  0  0  0  0
   -0.4952   -7.2927    4.5196 H   0  0  0  0  0  0  0  0  0  0  0  0
   -0.8490   -9.5883    3.5919 H   0  0  0  0  0  0  0  0  0  0  0  0
   -0.6271   -8.4726    2.3086 H   0  0  0  0  0  0  0  0  0  0  0  0
    2.9426   -8.9938    1.1597 H   0  0  0  0  0  0  0  0  0  0  0  0
    1.4162   -8.2772    0.9393 H   0  0  0  0  0  0  0  0  0  0  0  0
    3.1283   -8.0185    3.4170 H   0  0  0  0  0  0  0  0  0  0  0  0
    1.5780   -4.0400   -0.9097 H   0  0  0  0  0  0  0  0  0  0  0  0
    2.7728   -2.3755   -2.2360 H   0  0  0  0  0  0  0  0  0  0  0  0
    5.2144   -2.0354   -1.8844 H   0  0  0  0  0  0  0  0  0  0  0  0
    7.3327   -2.6441   -0.6556 H   0  0  0  0  0  0  0  0  0  0  0  0
    8.4881   -4.0132    1.0670 H   0  0  0  0  0  0  0  0  0  0  0  0
    7.2228   -5.6669    2.3715 H   0  0  0  0  0  0  0  0  0  0  0  0
  1  2  2  0
  2  7  1  0
  2  3  1  0
  3  4  1  0
  3 23  1  0
  3 24  1  0
  4  5  1  0
  4 25  1  0
  4 26  1  0
  5  6  1  0
  6  7  1  0
  6 27  1  0
  6 28  1  0
  7  8  1  0
  7 29  1  1
  8 21  1  0
  8  9  1  0
  9 10  2  0
  9 11  1  0
 11 20  2  0
 11 12  1  0
 12 13  2  0
 12 30  1  0
 13 14  1  0
 13 31  1  0
 14 15  2  0
 14 32  1  0
 15 20  1  0
 15 16  1  0
 16 17  2  0
 16 33  1  0
 17 18  1  0
 17 34  1  0
 18 19  2  0
 18 35  1  0
 19 20  1  0
 19 21  1  0
 21 22  2  0
M  END
>  <i_m_ct_stereo_status>  (19) 
1

>  <s_m_source_file>  (19) 
/var/tmp/pbs.5076255.sched01/tmpgn4o3w3f/0whq8s7pj.sdf

>  <i_m_source_file_index>  (19) 
8

>  <i_lp_mmshare_version>  (19) 
48012

>  <i_f3d_flags>  (19) 
0

>  <s_epik_input>  (19) 
Tz1DMVtDSDJdW0NIMl1TW0NIMl1bQ0BIXTFOKEMyPU8pQyg9TyljM1tjSF1bY0hdW2NIXWMoYzNjMjQpW2NIXVtjSF1bY0hdNA==

>  <s_epik_cmdline>  (19) 
J2VwaWtfcHl0aG9uJywgJy1waHQnLCAnMi4wJywgJy1waCcsICc3LjAnLCAnLXRuJywgJzgnLCAnLW1hJywgJzIwMCcsICctaW1hZScsICc8aW5maWxlLm1hZT4nLCAnLW9tYWUnLCAnPG91dGZpbGUubWFlPic=

>  <r_lp_tautomer_probability>  (19) 
1

>  <r_epik_Ionization_Penalty>  (19) 
1.61817e-10

>  <r_epik_Ionization_Penalty_Charging>  (19) 
0

>  <r_epik_Ionization_Penalty_Neutral>  (19) 
1.61817e-10

>  <r_epik_State_Penalty>  (19) 
-0

>  <r_epik_Charging_Adjusted_Penalty>  (19) 
0

>  <i_epik_Tot_Q>  (19) 
0

>  <i_epik_Tot_abs_Q>  (19) 
0

>  <s_lp_Force_Field>  (19) 
OPLS3e

>  <r_lp_Energy>  (19) 
30.0357

>  <b_lp_Chiralities_Consistent>  (19) 
1

>  <s_lp_Variant>  (19) 
4:0-1

>  <s_i_glide_gridfile>  (19) 
pfpi4k_grid

>  <i_i_glide_lignum>  (19) 
8

>  <i_i_glide_rotatable_bonds>  (19) 
1

>  <r_i_docking_score>  (19) 
-3.4734

>  <r_i_glide_ligand_efficiency>  (19) 
-0.157882

>  <r_i_glide_ligand_efficiency_sa>  (19) 
-0.442391

>  <r_i_glide_ligand_efficiency_ln>  (19) 
-0.849025

>  <r_i_glide_gscore>  (19) 
-3.4734

>  <r_i_glide_lipo>  (19) 
-0.617254

>  <r_i_glide_hbond>  (19) 
-0.159823

>  <r_i_glide_metal>  (19) 
-0

>  <r_i_glide_rewards>  (19) 
-1.3307

>  <r_i_glide_evdw>  (19) 
-25.7679

>  <r_i_glide_ecoul>  (19) 
-1.52592

>  <r_i_glide_erotb>  (19) 
0.191289

>  <r_i_glide_esite>  (19) 
-0.0396232

>  <r_i_glide_emodel>  (19) 
-33.1494

>  <r_i_glide_energy>  (19) 
-27.2938

>  <r_i_glide_einternal>  (19) 
0.176249

>  <r_i_glide_intrahb_reward>  (19) 
-0

>  <i_i_glide_confnum>  (19) 
2

>  <i_i_glide_posenum>  (19) 
2

>  <r_i_glide_eff_state_penalty>  (19) 
0

>  <ligand_id>  (19) 
4

>  <original_smiles>  (19) 
O=C1CCSCC1N1C(=O)c2cccc3cccc(c23)C1=O

>  <smiles>  (19) 
[H]c1c([H])c2c3c(c([H])c([H])c([H])c3c1[H])C(=O)N(C1([H])C(=O)C([H])([H])C([H])([H])SC1([H])[H])C2=O

$$$$
4:0:1
     RDKit          3D

 35 38  0  0  1  0  0  0  0  0999 V2000
    0.3268    2.2398    9.2212 O   0  0  0  0  0  0  0  0  0  0  0  0
   -0.8922    2.4468    9.2391 C   0  0  0  0  0  0  0  0  0  0  0  0
   -1.5877    2.7198   10.5500 C   0  0  0  0  0  0  0  0  0  0  0  0
   -2.6621    3.7745   10.4479 C   0  0  0  0  0  0  0  0  0  0  0  0
   -3.9329    3.3334    9.2843 S   0  0  0  0  0  0  0  0  0  0  0  0
   -2.9394    3.2815    7.8210 C   0  0  0  0  0  0  0  0  0  0  0  0
   -1.7881    2.2841    7.9802 C   0  0  1  0  0  0  0  0  0  0  0  0
   -0.9740    2.3048    6.7342 N   0  0  0  0  0  0  0  0  0  0  0  0
   -1.0327    1.2323    5.8909 C   0  0  0  0  0  0  0  0  0  0  0  0
   -1.7424    0.2480    6.0892 O   0  0  0  0  0  0  0  0  0  0  0  0
   -0.1719    1.2791    4.6257 C   0  0  0  0  0  0  0  0  0  0  0  0
   -0.1472    0.1777    3.7421 C   0  0  0  0  0  0  0  0  0  0  0  0
    0.6525    0.2060    2.5807 C   0  0  0  0  0  0  0  0  0  0  0  0
    1.4323    1.3365    2.3043 C   0  0  0  0  0  0  0  0  0  0  0  0
    1.4515    2.4535    3.1504 C   0  0  0  0  0  0  0  0  0  0  0  0
    2.2163    3.6115    2.9351 C   0  0  0  0  0  0  0  0  0  0  0  0
    2.1817    4.7046    3.8083 C   0  0  0  0  0  0  0  0  0  0  0  0
    1.3614    4.6337    4.9489 C   0  0  0  0  0  0  0  0  0  0  0  0
    0.5883    3.4877    5.2157 C   0  0  0  0  0  0  0  0  0  0  0  0
    0.6204    2.4034    4.3235 C   0  0  0  0  0  0  0  0  0  0  0  0
   -0.2659    3.4415    6.4683 C   0  0  0  0  0  0  0  0  0  0  0  0
   -0.2826    4.4396    7.1805 O   0  0  0  0  0  0  0  0  0  0  0  0
   -1.9880    1.7855   10.9063 H   0  0  0  0  0  0  0  0  0  0  0  0
   -0.8244    3.0026   11.2517 H   0  0  0  0  0  0  0  0  0  0  0  0
   -3.1227    3.9281   11.3974 H   0  0  0  0  0  0  0  0  0  0  0  0
   -2.2578    4.7105   10.1395 H   0  0  0  0  0  0  0  0  0  0  0  0
   -3.5317    3.0569    6.9492 H   0  0  0  0  0  0  0  0  0  0  0  0
   -2.6080    4.2861    7.6989 H   0  0  0  0  0  0  0  0  0  0  0  0
   -2.2595    1.3185    8.1076 H   0  0  0  0  0  0  0  0  0  0  0  0
   -0.7400   -0.7013    3.9495 H   0  0  0  0  0  0  0  0  0  0  0  0
    0.6534   -0.6349    1.9098 H   0  0  0  0  0  0  0  0  0  0  0  0
    2.0347    1.3611    1.4121 H   0  0  0  0  0  0  0  0  0  0  0  0
    2.8337    3.6746    2.0696 H   0  0  0  0  0  0  0  0  0  0  0  0
    2.7585    5.5963    3.6248 H   0  0  0  0  0  0  0  0  0  0  0  0
    1.3505    5.4752    5.6241 H   0  0  0  0  0  0  0  0  0  0  0  0
  1  2  2  0
  2  7  1  0
  2  3  1  0
  3  4  1  0
  3 23  1  0
  3 24  1  0
  4  5  1  0
  4 25  1  0
  4 26  1  0
  5  6  1  0
  6  7  1  0
  6 27  1  0
  6 28  1  0
  7  8  1  0
  7 29  1  1
  8 21  1  0
  8  9  1  0
  9 10  2  0
  9 11  1  0
 11 20  2  0
 11 12  1  0
 12 13  2  0
 12 30  1  0
 13 14  1  0
 13 31  1  0
 14 15  2  0
 14 32  1  0
 15 20  1  0
 15 16  1  0
 16 17  2  0
 16 33  1  0
 17 18  1  0
 17 34  1  0
 18 19  2  0
 18 35  1  0
 19 20  1  0
 19 21  1  0
 21 22  2  0
M  END
>  <i_m_ct_stereo_status>  (20) 
1

>  <s_m_source_file>  (20) 
/var/tmp/pbs.5076255.sched01/tmpgn4o3w3f/0whq8s7pj.sdf

>  <i_m_source_file_index>  (20) 
8

>  <i_lp_mmshare_version>  (20) 
48012

>  <i_f3d_flags>  (20) 
0

>  <s_epik_input>  (20) 
Tz1DMVtDSDJdW0NIMl1TW0NIMl1bQ0BIXTFOKEMyPU8pQyg9TyljM1tjSF1bY0hdW2NIXWMoYzNjMjQpW2NIXVtjSF1bY0hdNA==

>  <s_epik_cmdline>  (20) 
J2VwaWtfcHl0aG9uJywgJy1waHQnLCAnMi4wJywgJy1waCcsICc3LjAnLCAnLXRuJywgJzgnLCAnLW1hJywgJzIwMCcsICctaW1hZScsICc8aW5maWxlLm1hZT4nLCAnLW9tYWUnLCAnPG91dGZpbGUubWFlPic=

>  <r_lp_tautomer_probability>  (20) 
1

>  <r_epik_Ionization_Penalty>  (20) 
1.61817e-10

>  <r_epik_Ionization_Penalty_Charging>  (20) 
0

>  <r_epik_Ionization_Penalty_Neutral>  (20) 
1.61817e-10

>  <r_epik_State_Penalty>  (20) 
-0

>  <r_epik_Charging_Adjusted_Penalty>  (20) 
0

>  <i_epik_Tot_Q>  (20) 
0

>  <i_epik_Tot_abs_Q>  (20) 
0

>  <s_lp_Force_Field>  (20) 
OPLS3e

>  <r_lp_Energy>  (20) 
30.0357

>  <b_lp_Chiralities_Consistent>  (20) 
1

>  <s_lp_Variant>  (20) 
4:0-1

>  <s_i_glide_gridfile>  (20) 
pfpi4k_grid

>  <i_i_glide_lignum>  (20) 
8

>  <i_i_glide_rotatable_bonds>  (20) 
1

>  <r_i_docking_score>  (20) 
-3.11273

>  <r_i_glide_ligand_efficiency>  (20) 
-0.141488

>  <r_i_glide_ligand_efficiency_sa>  (20) 
-0.396455

>  <r_i_glide_ligand_efficiency_ln>  (20) 
-0.760866

>  <r_i_glide_gscore>  (20) 
-3.11273

>  <r_i_glide_lipo>  (20) 
-0.254002

>  <r_i_glide_hbond>  (20) 
-0.129248

>  <r_i_glide_metal>  (20) 
-0

>  <r_i_glide_rewards>  (20) 
-1.28621

>  <r_i_glide_evdw>  (20) 
-25.6532

>  <r_i_glide_ecoul>  (20) 
-2.04238

>  <r_i_glide_erotb>  (20) 
0.191289

>  <r_i_glide_esite>  (20) 
-0.0455494

>  <r_i_glide_emodel>  (20) 
-32.5479

>  <r_i_glide_energy>  (20) 
-27.6955

>  <r_i_glide_einternal>  (20) 
1.05792

>  <r_i_glide_intrahb_reward>  (20) 
-0

>  <i_i_glide_confnum>  (20) 
6

>  <i_i_glide_posenum>  (20) 
27

>  <r_i_glide_eff_state_penalty>  (20) 
0

>  <ligand_id>  (20) 
4

>  <original_smiles>  (20) 
O=C1CCSCC1N1C(=O)c2cccc3cccc(c23)C1=O

>  <smiles>  (20) 
[H]c1c([H])c2c3c(c([H])c([H])c([H])c3c1[H])C(=O)N(C1([H])C(=O)C([H])([H])C([H])([H])SC1([H])[H])C2=O

$$$$
4:0:2
     RDKit          3D

 35 38  0  0  1  0  0  0  0  0999 V2000
    2.0886   -3.8319   -0.8879 O   0  0  0  0  0  0  0  0  0  0  0  0
    3.2542   -3.4889   -0.6933 C   0  0  0  0  0  0  0  0  0  0  0  0
    3.8315   -2.2889   -1.4198 C   0  0  0  0  0  0  0  0  0  0  0  0
    4.7728   -1.4711   -0.5759 C   0  0  0  0  0  0  0  0  0  0  0  0
    6.1657   -2.4495   -0.0365 S   0  0  0  0  0  0  0  0  0  0  0  0
    5.2722   -3.5865    0.9968 C   0  0  0  0  0  0  0  0  0  0  0  0
    4.2481   -4.3441    0.1520 C   0  0  1  0  0  0  0  0  0  0  0  0
    3.5084   -5.2956    1.0280 N   0  0  0  0  0  0  0  0  0  0  0  0
    3.7530   -6.6282    0.9238 C   0  0  0  0  0  0  0  0  0  0  0  0
    4.6002   -7.1081    0.1510 O   0  0  0  0  0  0  0  0  0  0  0  0
    2.9681   -7.5951    1.8083 C   0  0  0  0  0  0  0  0  0  0  0  0
    3.1378   -8.9859    1.6942 C   0  0  0  0  0  0  0  0  0  0  0  0
    2.4144   -9.8763    2.5120 C   0  0  0  0  0  0  0  0  0  0  0  0
    1.5081   -9.3670    3.4531 C   0  0  0  0  0  0  0  0  0  0  0  0
    1.2954   -7.9948    3.6132 C   0  0  0  0  0  0  0  0  0  0  0  0
    0.4064   -7.4201    4.5337 C   0  0  0  0  0  0  0  0  0  0  0  0
    0.2446   -6.0298    4.6515 C   0  0  0  0  0  0  0  0  0  0  0  0
    0.9930   -5.1916    3.8251 C   0  0  0  0  0  0  0  0  0  0  0  0
    1.8972   -5.7117    2.8655 C   0  0  0  0  0  0  0  0  0  0  0  0
    2.0492   -7.1042    2.7711 C   0  0  0  0  0  0  0  0  0  0  0  0
    2.6662   -4.7791    1.9684 C   0  0  0  0  0  0  0  0  0  0  0  0
    2.5047   -3.5563    2.1319 O   0  0  0  0  0  0  0  0  0  0  0  0
    4.3164   -2.6675   -2.3028 H   0  0  0  0  0  0  0  0  0  0  0  0
    2.9885   -1.7190   -1.7650 H   0  0  0  0  0  0  0  0  0  0  0  0
    5.1195   -0.6254   -1.1160 H   0  0  0  0  0  0  0  0  0  0  0  0
    4.2696   -1.0898    0.2751 H   0  0  0  0  0  0  0  0  0  0  0  0
    5.9170   -4.2608    1.5266 H   0  0  0  0  0  0  0  0  0  0  0  0
    4.8158   -2.9921    1.7485 H   0  0  0  0  0  0  0  0  0  0  0  0
    4.8163   -4.8929   -0.5891 H   0  0  0  0  0  0  0  0  0  0  0  0
    3.8280   -9.3970    0.9666 H   0  0  0  0  0  0  0  0  0  0  0  0
    2.5716  -10.9354    2.4096 H   0  0  0  0  0  0  0  0  0  0  0  0
    0.9585  -10.0454    4.0852 H   0  0  0  0  0  0  0  0  0  0  0  0
   -0.1588   -8.0682    5.1774 H   0  0  0  0  0  0  0  0  0  0  0  0
   -0.4407   -5.5981    5.3662 H   0  0  0  0  0  0  0  0  0  0  0  0
    0.8582   -4.1213    3.9062 H   0  0  0  0  0  0  0  0  0  0  0  0
  1  2  2  0
  2  7  1  0
  2  3  1  0
  3  4  1  0
  3 23  1  0
  3 24  1  0
  4  5  1  0
  4 25  1  0
  4 26  1  0
  5  6  1  0
  6  7  1  0
  6 27  1  0
  6 28  1  0
  7  8  1  0
  7 29  1  6
  8 21  1  0
  8  9  1  0
  9 10  2  0
  9 11  1  0
 11 20  2  0
 11 12  1  0
 12 13  2  0
 12 30  1  0
 13 14  1  0
 13 31  1  0
 14 15  2  0
 14 32  1  0
 15 20  1  0
 15 16  1  0
 16 17  2  0
 16 33  1  0
 17 18  1  0
 17 34  1  0
 18 19  2  0
 18 35  1  0
 19 20  1  0
 19 21  1  0
 21 22  2  0
M  END
>  <i_m_ct_stereo_status>  (21) 
1

>  <s_m_source_file>  (21) 
/var/tmp/pbs.5076255.sched01/tmpgn4o3w3f/0whq8s7pj.sdf

>  <i_m_source_file_index>  (21) 
8

>  <i_lp_mmshare_version>  (21) 
48012

>  <i_f3d_flags>  (21) 
0

>  <s_epik_input>  (21) 
Tz1DMVtDSDJdW0NIMl1TW0NIMl1bQ0BIXTFOKEMyPU8pQyg9TyljM1tjSF1bY0hdW2NIXWMoYzNjMjQpW2NIXVtjSF1bY0hdNA==

>  <s_epik_cmdline>  (21) 
J2VwaWtfcHl0aG9uJywgJy1waHQnLCAnMi4wJywgJy1waCcsICc3LjAnLCAnLXRuJywgJzgnLCAnLW1hJywgJzIwMCcsICctaW1hZScsICc8aW5maWxlLm1hZT4nLCAnLW9tYWUnLCAnPG91dGZpbGUubWFlPic=

>  <r_lp_tautomer_probability>  (21) 
1

>  <r_epik_Ionization_Penalty>  (21) 
1.61817e-10

>  <r_epik_Ionization_Penalty_Charging>  (21) 
0

>  <r_epik_Ionization_Penalty_Neutral>  (21) 
1.61817e-10

>  <r_epik_State_Penalty>  (21) 
-0

>  <r_epik_Charging_Adjusted_Penalty>  (21) 
0

>  <i_epik_Tot_Q>  (21) 
0

>  <i_epik_Tot_abs_Q>  (21) 
0

>  <s_lp_Force_Field>  (21) 
OPLS3e

>  <r_lp_Energy>  (21) 
30.0357

>  <b_lp_Chiralities_Consistent>  (21) 
1

>  <s_lp_Variant>  (21) 
4:0-1

>  <s_i_glide_gridfile>  (21) 
pfpi4k_grid

>  <i_i_glide_lignum>  (21) 
8

>  <i_i_glide_rotatable_bonds>  (21) 
1

>  <r_i_docking_score>  (21) 
-2.74694

>  <r_i_glide_ligand_efficiency>  (21) 
-0.124861

>  <r_i_glide_ligand_efficiency_sa>  (21) 
-0.349866

>  <r_i_glide_ligand_efficiency_ln>  (21) 
-0.671453

>  <r_i_glide_gscore>  (21) 
-2.74694

>  <r_i_glide_lipo>  (21) 
-0.0751351

>  <r_i_glide_hbond>  (21) 
0

>  <r_i_glide_metal>  (21) 
-0

>  <r_i_glide_rewards>  (21) 
-1.45784

>  <r_i_glide_evdw>  (21) 
-26.3605

>  <r_i_glide_ecoul>  (21) 
-0.501089

>  <r_i_glide_erotb>  (21) 
0.191289

>  <r_i_glide_esite>  (21) 
-0.0120689

>  <r_i_glide_emodel>  (21) 
-31.0383

>  <r_i_glide_energy>  (21) 
-26.8616

>  <r_i_glide_einternal>  (21) 
1.05936

>  <r_i_glide_intrahb_reward>  (21) 
-0

>  <i_i_glide_confnum>  (21) 
6

>  <i_i_glide_posenum>  (21) 
23

>  <r_i_glide_eff_state_penalty>  (21) 
0

>  <ligand_id>  (21) 
4

>  <original_smiles>  (21) 
O=C1CCSCC1N1C(=O)c2cccc3cccc(c23)C1=O

>  <smiles>  (21) 
[H]c1c([H])c2c3c(c([H])c([H])c([H])c3c1[H])C(=O)N(C1([H])C(=O)C([H])([H])C([H])([H])SC1([H])[H])C2=O

$$$$
5:0:0
     RDKit          3D

 31 33  0  0  1  0  0  0  0  0999 V2000
    1.8808   -3.2652   -2.4533 C   0  0  0  0  0  0  0  0  0  0  0  0
    2.5578   -2.6010   -3.4998 O   0  0  0  0  0  0  0  0  0  0  0  0
    3.7570   -1.9563   -3.3416 C   0  0  0  0  0  0  0  0  0  0  0  0
    4.2157   -1.2158   -4.2098 O   0  0  0  0  0  0  0  0  0  0  0  0
    4.4664   -2.1642   -2.0424 C   0  0  0  0  0  0  0  0  0  0  0  0
    5.0478   -1.0341   -1.3882 C   0  0  0  0  0  0  0  0  0  0  0  0
    5.6747   -1.1799   -0.1599 C   0  0  0  0  0  0  0  0  0  0  0  0
    5.7038   -2.4555    0.4835 C   0  0  0  0  0  0  0  0  0  0  0  0
    6.2102   -2.8720    1.6416 N   0  0  0  0  0  0  0  0  0  0  0  0
    5.9302   -4.2319    1.7078 C   0  0  0  0  0  0  0  0  0  0  0  0
    5.2502   -4.6488    0.5960 C   0  0  0  0  0  0  0  0  0  0  0  0
    4.7170   -6.0186    0.2432 C   0  0  0  0  0  0  0  0  0  0  0  0
    3.3893   -6.2802    0.7882 N   0  0  0  0  0  0  0  0  0  0  0  0
    3.0205   -7.2769    1.6960 C   0  0  0  0  0  0  0  0  0  0  0  0
    1.6695   -7.1587    1.8909 C   0  0  0  0  0  0  0  0  0  0  0  0
    1.1726   -6.1261    1.0993 N   0  0  0  0  0  0  0  0  0  0  0  0
    2.2552   -5.6476    0.4890 C   0  0  0  0  0  0  0  0  0  0  0  0
    5.1375   -3.5482   -0.2286 N   0  0  0  0  0  0  0  0  0  0  0  0
    4.6119   -3.4007   -1.4738 C   0  0  0  0  0  0  0  0  0  0  0  0
    0.9039   -3.5963   -2.7253 H   0  0  0  0  0  0  0  0  0  0  0  0
    1.7906   -2.6650   -1.5644 H   0  0  0  0  0  0  0  0  0  0  0  0
    2.3510   -4.1748   -2.2050 H   0  0  0  0  0  0  0  0  0  0  0  0
    4.9983   -0.0503   -1.8687 H   0  0  0  0  0  0  0  0  0  0  0  0
    6.1437   -0.3189    0.3364 H   0  0  0  0  0  0  0  0  0  0  0  0
    6.2502   -4.8153    2.5578 H   0  0  0  0  0  0  0  0  0  0  0  0
    4.6701   -6.1789   -0.8389 H   0  0  0  0  0  0  0  0  0  0  0  0
    5.3918   -6.7875    0.6137 H   0  0  0  0  0  0  0  0  0  0  0  0
    3.7394   -7.9695    2.1038 H   0  0  0  0  0  0  0  0  0  0  0  0
    1.0135   -7.7305    2.5295 H   0  0  0  0  0  0  0  0  0  0  0  0
    2.2077   -4.8218   -0.2146 H   0  0  0  0  0  0  0  0  0  0  0  0
    4.3065   -4.3342   -1.9310 H   0  0  0  0  0  0  0  0  0  0  0  0
  1  2  1  0
  1 20  1  0
  1 21  1  0
  1 22  1  0
  2  3  1  0
  3  4  2  0
  3  5  1  0
  5 19  2  0
  5  6  1  0
  6  7  2  0
  6 23  1  0
  7  8  1  0
  7 24  1  0
  8 18  1  0
  8  9  2  0
  9 10  1  0
 10 11  2  0
 10 25  1  0
 11 12  1  0
 11 18  1  0
 12 13  1  0
 12 26  1  0
 12 27  1  0
 13 17  1  0
 13 14  1  0
 14 15  2  0
 14 28  1  0
 15 16  1  0
 15 29  1  0
 16 17  2  0
 17 30  1  0
 18 19  1  0
 19 31  1  0
M  END
>  <i_m_ct_stereo_status>  (22) 
1

>  <s_m_source_file>  (22) 
/var/tmp/pbs.5076255.sched01/tmpgn4o3w3f/0whq8s7pj.sdf

>  <i_m_source_file_index>  (22) 
9

>  <i_lp_mmshare_version>  (22) 
48012

>  <i_f3d_flags>  (22) 
0

>  <s_epik_input>  (22) 
W0NIM11PQyg9TyljKFtjSF1bY0hdMSlbY0hdbihjMTIpYyhbY0hdbjIpW0NIMl1uM1tjSF1bY0hdbltjSF0z

>  <s_epik_cmdline>  (22) 
J2VwaWtfcHl0aG9uJywgJy1waHQnLCAnMi4wJywgJy1waCcsICc3LjAnLCAnLXRuJywgJzgnLCAnLW1hJywgJzIwMCcsICctaW1hZScsICc8aW5maWxlLm1hZT4nLCAnLW9tYWUnLCAnPG91dGZpbGUubWFlPic=

>  <r_lp_tautomer_probability>  (22) 
1

>  <r_epik_Ionization_Penalty>  (22) 
0.459596

>  <r_epik_Ionization_Penalty_Charging>  (22) 
0.459596

>  <r_epik_Ionization_Penalty_Neutral>  (22) 
1.52213e-13

>  <r_epik_State_Penalty>  (22) 
0.402672

>  <r_epik_Charging_Adjusted_Penalty>  (22) 
0.862268

>  <i_epik_Tot_Q>  (22) 
0

>  <i_epik_Tot_abs_Q>  (22) 
0

>  <s_epik_Chemistry_Notes>  (22) 
This compound has an ester and may undergo hydrolysis at high or low pH.

>  <s_lp_Force_Field>  (22) 
OPLS3e

>  <r_lp_Energy>  (22) 
14.8266

>  <b_lp_Chiralities_Consistent>  (22) 
1

>  <s_lp_Variant>  (22) 
5:0-1

>  <s_i_glide_gridfile>  (22) 
pfpi4k_grid

>  <i_i_glide_lignum>  (22) 
9

>  <i_i_glide_rotatable_bonds>  (22) 
4

>  <r_i_docking_score>  (22) 
-4.51823

>  <r_i_glide_ligand_efficiency>  (22) 
-0.237802

>  <r_i_glide_ligand_efficiency_sa>  (22) 
-0.63455

>  <r_i_glide_ligand_efficiency_ln>  (22) 
-1.14547

>  <r_i_glide_gscore>  (22) 
-4.51823

>  <r_i_glide_lipo>  (22) 
-0.429765

>  <r_i_glide_hbond>  (22) 
-0.289024

>  <r_i_glide_metal>  (22) 
-0

>  <r_i_glide_rewards>  (22) 
-2.0308

>  <r_i_glide_evdw>  (22) 
-23.5671

>  <r_i_glide_ecoul>  (22) 
-8.96767

>  <r_i_glide_erotb>  (22) 
0.805081

>  <r_i_glide_esite>  (22) 
-0.0502151

>  <r_i_glide_emodel>  (22) 
-38.7108

>  <r_i_glide_energy>  (22) 
-32.5347

>  <r_i_glide_einternal>  (22) 
5.92837

>  <r_i_glide_intrahb_reward>  (22) 
-0

>  <i_i_glide_confnum>  (22) 
5

>  <i_i_glide_posenum>  (22) 
30

>  <r_i_glide_eff_state_penalty>  (22) 
0

>  <ligand_id>  (22) 
5

>  <original_smiles>  (22) 
COC(=O)c1ccc2ncc(Cn3ccnc3)n2c1

>  <smiles>  (22) 
[H]c1nc([H])n(C([H])([H])c2c([H])nc3c([H])c([H])c(C(=O)OC([H])([H])[H])c([H])n23)c1[H]

$$$$
5:0:1
     RDKit          3D

 31 33  0  0  1  0  0  0  0  0999 V2000
    2.0965   -2.5923   -3.9071 C   0  0  0  0  0  0  0  0  0  0  0  0
    2.9024   -2.7800   -2.7602 O   0  0  0  0  0  0  0  0  0  0  0  0
    4.1075   -2.1912   -2.6997 C   0  0  0  0  0  0  0  0  0  0  0  0
    4.5168   -1.3657   -3.5160 O   0  0  0  0  0  0  0  0  0  0  0  0
    4.9181   -2.6609   -1.5448 C   0  0  0  0  0  0  0  0  0  0  0  0
    5.8812   -1.8084   -0.9546 C   0  0  0  0  0  0  0  0  0  0  0  0
    6.6579   -2.2540    0.0916 C   0  0  0  0  0  0  0  0  0  0  0  0
    6.4844   -3.5696    0.6005 C   0  0  0  0  0  0  0  0  0  0  0  0
    7.0854   -4.2342    1.5832 N   0  0  0  0  0  0  0  0  0  0  0  0
    6.4871   -5.4830    1.6319 C   0  0  0  0  0  0  0  0  0  0  0  0
    5.5272   -5.6048    0.6634 C   0  0  0  0  0  0  0  0  0  0  0  0
    4.6546   -6.7697    0.3376 C   0  0  0  0  0  0  0  0  0  0  0  0
    3.3253   -6.6507    0.8984 N   0  0  0  0  0  0  0  0  0  0  0  0
    2.7487   -7.4863    1.8483 C   0  0  0  0  0  0  0  0  0  0  0  0
    1.4685   -7.0199    2.0568 C   0  0  0  0  0  0  0  0  0  0  0  0
    1.2281   -5.9184    1.2406 N   0  0  0  0  0  0  0  0  0  0  0  0
    2.3747   -5.7494    0.5948 C   0  0  0  0  0  0  0  0  0  0  0  0
    5.5052   -4.3864   -0.0133 N   0  0  0  0  0  0  0  0  0  0  0  0
    4.7612   -3.9465   -1.0690 C   0  0  0  0  0  0  0  0  0  0  0  0
    1.1173   -3.0408   -3.7489 H   0  0  0  0  0  0  0  0  0  0  0  0
    2.5844   -3.1111   -4.7253 H   0  0  0  0  0  0  0  0  0  0  0  0
    1.9629   -1.5469   -4.1999 H   0  0  0  0  0  0  0  0  0  0  0  0
    5.9912   -0.7972   -1.3398 H   0  0  0  0  0  0  0  0  0  0  0  0
    7.3956   -1.6085    0.5516 H   0  0  0  0  0  0  0  0  0  0  0  0
    6.8043   -6.2081    2.3671 H   0  0  0  0  0  0  0  0  0  0  0  0
    4.5865   -6.8827   -0.7436 H   0  0  0  0  0  0  0  0  0  0  0  0
    5.1216   -7.6818    0.7168 H   0  0  0  0  0  0  0  0  0  0  0  0
    3.2611   -8.3322    2.2830 H   0  0  0  0  0  0  0  0  0  0  0  0
    0.6944   -7.3883    2.7131 H   0  0  0  0  0  0  0  0  0  0  0  0
    2.4986   -4.9678   -0.1368 H   0  0  0  0  0  0  0  0  0  0  0  0
    4.0774   -4.6542   -1.5305 H   0  0  0  0  0  0  0  0  0  0  0  0
  1  2  1  0
  1 20  1  0
  1 21  1  0
  1 22  1  0
  2  3  1  0
  3  4  2  0
  3  5  1  0
  5 19  2  0
  5  6  1  0
  6  7  2  0
  6 23  1  0
  7  8  1  0
  7 24  1  0
  8 18  1  0
  8  9  2  0
  9 10  1  0
 10 11  2  0
 10 25  1  0
 11 12  1  0
 11 18  1  0
 12 13  1  0
 12 26  1  0
 12 27  1  0
 13 17  1  0
 13 14  1  0
 14 15  2  0
 14 28  1  0
 15 16  1  0
 15 29  1  0
 16 17  2  0
 17 30  1  0
 18 19  1  0
 19 31  1  0
M  END
>  <i_m_ct_stereo_status>  (23) 
1

>  <s_m_source_file>  (23) 
/var/tmp/pbs.5076255.sched01/tmpgn4o3w3f/0whq8s7pj.sdf

>  <i_m_source_file_index>  (23) 
9

>  <i_lp_mmshare_version>  (23) 
48012

>  <i_f3d_flags>  (23) 
0

>  <s_epik_input>  (23) 
W0NIM11PQyg9TyljKFtjSF1bY0hdMSlbY0hdbihjMTIpYyhbY0hdbjIpW0NIMl1uM1tjSF1bY0hdbltjSF0z

>  <s_epik_cmdline>  (23) 
J2VwaWtfcHl0aG9uJywgJy1waHQnLCAnMi4wJywgJy1waCcsICc3LjAnLCAnLXRuJywgJzgnLCAnLW1hJywgJzIwMCcsICctaW1hZScsICc8aW5maWxlLm1hZT4nLCAnLW9tYWUnLCAnPG91dGZpbGUubWFlPic=

>  <r_lp_tautomer_probability>  (23) 
1

>  <r_epik_Ionization_Penalty>  (23) 
0.459596

>  <r_epik_Ionization_Penalty_Charging>  (23) 
0.459596

>  <r_epik_Ionization_Penalty_Neutral>  (23) 
1.52213e-13

>  <r_epik_State_Penalty>  (23) 
0.402672

>  <r_epik_Charging_Adjusted_Penalty>  (23) 
0.862268

>  <i_epik_Tot_Q>  (23) 
0

>  <i_epik_Tot_abs_Q>  (23) 
0

>  <s_epik_Chemistry_Notes>  (23) 
This compound has an ester and may undergo hydrolysis at high or low pH.

>  <s_lp_Force_Field>  (23) 
OPLS3e

>  <r_lp_Energy>  (23) 
14.8266

>  <b_lp_Chiralities_Consistent>  (23) 
1

>  <s_lp_Variant>  (23) 
5:0-1

>  <s_i_glide_gridfile>  (23) 
pfpi4k_grid

>  <i_i_glide_lignum>  (23) 
9

>  <i_i_glide_rotatable_bonds>  (23) 
4

>  <r_i_docking_score>  (23) 
-4.01456

>  <r_i_glide_ligand_efficiency>  (23) 
-0.211293

>  <r_i_glide_ligand_efficiency_sa>  (23) 
-0.563814

>  <r_i_glide_ligand_efficiency_ln>  (23) 
-1.01778

>  <r_i_glide_gscore>  (23) 
-4.01456

>  <r_i_glide_lipo>  (23) 
-0.517036

>  <r_i_glide_hbond>  (23) 
-0.156605

>  <r_i_glide_metal>  (23) 
-0

>  <r_i_glide_rewards>  (23) 
-2.03324

>  <r_i_glide_evdw>  (23) 
-22.7621

>  <r_i_glide_ecoul>  (23) 
-6.22429

>  <r_i_glide_erotb>  (23) 
0.805081

>  <r_i_glide_esite>  (23) 
-0.0410096

>  <r_i_glide_emodel>  (23) 
-35.9693

>  <r_i_glide_energy>  (23) 
-28.9864

>  <r_i_glide_einternal>  (23) 
2.82314

>  <r_i_glide_intrahb_reward>  (23) 
-0

>  <i_i_glide_confnum>  (23) 
5

>  <i_i_glide_posenum>  (23) 
36

>  <r_i_glide_eff_state_penalty>  (23) 
0

>  <ligand_id>  (23) 
5

>  <original_smiles>  (23) 
COC(=O)c1ccc2ncc(Cn3ccnc3)n2c1

>  <smiles>  (23) 
[H]c1nc([H])n(C([H])([H])c2c([H])nc3c([H])c([H])c(C(=O)OC([H])([H])[H])c([H])n23)c1[H]

$$$$
5:0:2
     RDKit          3D

 31 33  0  0  1  0  0  0  0  0999 V2000
    3.4537   -2.0485   -3.0325 C   0  0  0  0  0  0  0  0  0  0  0  0
    3.5240   -1.6906   -1.6610 O   0  0  0  0  0  0  0  0  0  0  0  0
    4.7178   -1.4908   -1.0683 C   0  0  0  0  0  0  0  0  0  0  0  0
    5.7996   -1.5915   -1.6518 O   0  0  0  0  0  0  0  0  0  0  0  0
    4.6091   -1.1371    0.3792 C   0  0  0  0  0  0  0  0  0  0  0  0
    5.7981   -0.9917    1.1430 C   0  0  0  0  0  0  0  0  0  0  0  0
    5.7404   -0.6595    2.4747 C   0  0  0  0  0  0  0  0  0  0  0  0
    4.4903   -0.4673    3.1102 C   0  0  0  0  0  0  0  0  0  0  0  0
    4.1772   -0.1525    4.3638 N   0  0  0  0  0  0  0  0  0  0  0  0
    2.7928   -0.1035    4.4038 C   0  0  0  0  0  0  0  0  0  0  0  0
    2.2468   -0.3934    3.1796 C   0  0  0  0  0  0  0  0  0  0  0  0
    0.8117   -0.4765    2.7595 C   0  0  0  0  0  0  0  0  0  0  0  0
   -0.1194   -0.2683    3.8583 N   0  0  0  0  0  0  0  0  0  0  0  0
   -0.7759    0.9106    4.1827 C   0  0  0  0  0  0  0  0  0  0  0  0
   -1.5438    0.6448    5.2946 C   0  0  0  0  0  0  0  0  0  0  0  0
   -1.3847   -0.6897    5.6692 N   0  0  0  0  0  0  0  0  0  0  0  0
   -0.5210   -1.1638    4.7758 C   0  0  0  0  0  0  0  0  0  0  0  0
    3.3223   -0.6244    2.3234 N   0  0  0  0  0  0  0  0  0  0  0  0
    3.3840   -0.9475    0.9960 C   0  0  0  0  0  0  0  0  0  0  0  0
    2.4106   -2.1708   -3.3242 H   0  0  0  0  0  0  0  0  0  0  0  0
    3.9669   -2.9921   -3.2245 H   0  0  0  0  0  0  0  0  0  0  0  0
    3.8910   -1.2772   -3.6684 H   0  0  0  0  0  0  0  0  0  0  0  0
    6.7742   -1.1354    0.6846 H   0  0  0  0  0  0  0  0  0  0  0  0
    6.6453   -0.5375    3.0540 H   0  0  0  0  0  0  0  0  0  0  0  0
    2.2881    0.1343    5.3306 H   0  0  0  0  0  0  0  0  0  0  0  0
    0.6045    0.2604    1.9810 H   0  0  0  0  0  0  0  0  0  0  0  0
    0.6272   -1.4580    2.3227 H   0  0  0  0  0  0  0  0  0  0  0  0
   -0.6460    1.8183    3.6115 H   0  0  0  0  0  0  0  0  0  0  0  0
   -2.1938    1.3074    5.8490 H   0  0  0  0  0  0  0  0  0  0  0  0
   -0.1696   -2.1859    4.7863 H   0  0  0  0  0  0  0  0  0  0  0  0
    2.4350   -1.0372    0.4809 H   0  0  0  0  0  0  0  0  0  0  0  0
  1  2  1  0
  1 20  1  0
  1 21  1  0
  1 22  1  0
  2  3  1  0
  3  4  2  0
  3  5  1  0
  5 19  2  0
  5  6  1  0
  6  7  2  0
  6 23  1  0
  7  8  1  0
  7 24  1  0
  8 18  1  0
  8  9  2  0
  9 10  1  0
 10 11  2  0
 10 25  1  0
 11 12  1  0
 11 18  1  0
 12 13  1  0
 12 26  1  0
 12 27  1  0
 13 17  1  0
 13 14  1  0
 14 15  2  0
 14 28  1  0
 15 16  1  0
 15 29  1  0
 16 17  2  0
 17 30  1  0
 18 19  1  0
 19 31  1  0
M  END
>  <i_m_ct_stereo_status>  (24) 
1

>  <s_m_source_file>  (24) 
/var/tmp/pbs.5076255.sched01/tmpgn4o3w3f/0whq8s7pj.sdf

>  <i_m_source_file_index>  (24) 
9

>  <i_lp_mmshare_version>  (24) 
48012

>  <i_f3d_flags>  (24) 
0

>  <s_epik_input>  (24) 
W0NIM11PQyg9TyljKFtjSF1bY0hdMSlbY0hdbihjMTIpYyhbY0hdbjIpW0NIMl1uM1tjSF1bY0hdbltjSF0z

>  <s_epik_cmdline>  (24) 
J2VwaWtfcHl0aG9uJywgJy1waHQnLCAnMi4wJywgJy1waCcsICc3LjAnLCAnLXRuJywgJzgnLCAnLW1hJywgJzIwMCcsICctaW1hZScsICc8aW5maWxlLm1hZT4nLCAnLW9tYWUnLCAnPG91dGZpbGUubWFlPic=

>  <r_lp_tautomer_probability>  (24) 
1

>  <r_epik_Ionization_Penalty>  (24) 
0.459596

>  <r_epik_Ionization_Penalty_Charging>  (24) 
0.459596

>  <r_epik_Ionization_Penalty_Neutral>  (24) 
1.52213e-13

>  <r_epik_State_Penalty>  (24) 
0.402672

>  <r_epik_Charging_Adjusted_Penalty>  (24) 
0.862268

>  <i_epik_Tot_Q>  (24) 
0

>  <i_epik_Tot_abs_Q>  (24) 
0

>  <s_epik_Chemistry_Notes>  (24) 
This compound has an ester and may undergo hydrolysis at high or low pH.

>  <s_lp_Force_Field>  (24) 
OPLS3e

>  <r_lp_Energy>  (24) 
14.8266

>  <b_lp_Chiralities_Consistent>  (24) 
1

>  <s_lp_Variant>  (24) 
5:0-1

>  <s_i_glide_gridfile>  (24) 
pfpi4k_grid

>  <i_i_glide_lignum>  (24) 
9

>  <i_i_glide_rotatable_bonds>  (24) 
4

>  <r_i_docking_score>  (24) 
-3.39124

>  <r_i_glide_ligand_efficiency>  (24) 
-0.178486

>  <r_i_glide_ligand_efficiency_sa>  (24) 
-0.476273

>  <r_i_glide_ligand_efficiency_ln>  (24) 
-0.859752

>  <r_i_glide_gscore>  (24) 
-3.39124

>  <r_i_glide_lipo>  (24) 
-0.26063

>  <r_i_glide_hbond>  (24) 
-0.0652424

>  <r_i_glide_metal>  (24) 
-0

>  <r_i_glide_rewards>  (24) 
-1.76377

>  <r_i_glide_evdw>  (24) 
-23.1702

>  <r_i_glide_ecoul>  (24) 
-5.75867

>  <r_i_glide_erotb>  (24) 
0.805081

>  <r_i_glide_esite>  (24) 
-0.0843708

>  <r_i_glide_emodel>  (24) 
-36.0599

>  <r_i_glide_energy>  (24) 
-28.9289

>  <r_i_glide_einternal>  (24) 
0.486798

>  <r_i_glide_intrahb_reward>  (24) 
-0

>  <i_i_glide_confnum>  (24) 
4

>  <i_i_glide_posenum>  (24) 
3

>  <r_i_glide_eff_state_penalty>  (24) 
0

>  <ligand_id>  (24) 
5

>  <original_smiles>  (24) 
COC(=O)c1ccc2ncc(Cn3ccnc3)n2c1

>  <smiles>  (24) 
[H]c1nc([H])n(C([H])([H])c2c([H])nc3c([H])c([H])c(C(=O)OC([H])([H])[H])c([H])n23)c1[H]

$$$$
5:1:0
     RDKit          3D

 32 34  0  0  1  0  0  0  0  0999 V2000
    2.9819   -3.1218   -0.7658 C   0  0  0  0  0  0  0  0  0  0  0  0
    3.5920   -4.2805   -0.2128 O   0  0  0  0  0  0  0  0  0  0  0  0
    4.9279   -4.3066   -0.0080 C   0  0  0  0  0  0  0  0  0  0  0  0
    5.6731   -3.3568   -0.2558 O   0  0  0  0  0  0  0  0  0  0  0  0
    5.4166   -5.6004    0.5641 C   0  0  0  0  0  0  0  0  0  0  0  0
    6.7951   -5.7397    0.8853 C   0  0  0  0  0  0  0  0  0  0  0  0
    7.2806   -6.9141    1.4103 C   0  0  0  0  0  0  0  0  0  0  0  0
    6.4036   -8.0016    1.6452 C   0  0  0  0  0  0  0  0  0  0  0  0
    6.6205   -9.2241    2.1204 N   0  0  0  0  0  0  0  0  0  0  0  0
    5.3923   -9.8601    2.1047 C   0  0  0  0  0  0  0  0  0  0  0  0
    4.4034   -9.0367    1.6300 C   0  0  0  0  0  0  0  0  0  0  0  0
    2.9371   -9.3026    1.4356 C   0  0  0  0  0  0  0  0  0  0  0  0
    2.2985  -10.0249    2.5441 N   0  0  0  0  0  0  0  0  0  0  0  0
    1.2598   -9.5775    3.3231 C   0  0  0  0  0  0  0  0  0  0  0  0
    0.9703  -10.5814    4.2141 C   0  0  0  0  0  0  0  0  0  0  0  0
    1.8382  -11.6019    3.9382 N   0  0  0  0  0  0  0  0  0  0  0  0
    2.6286  -11.2713    2.9128 C   0  0  0  0  0  0  0  0  0  0  0  0
    5.0347   -7.8332    1.3118 N   0  0  0  0  0  0  0  0  0  0  0  0
    4.5592   -6.6648    0.7851 C   0  0  0  0  0  0  0  0  0  0  0  0
    1.9104   -3.2874   -0.8677 H   0  0  0  0  0  0  0  0  0  0  0  0
    3.3790   -2.8943   -1.7557 H   0  0  0  0  0  0  0  0  0  0  0  0
    3.1241   -2.2515   -0.1240 H   0  0  0  0  0  0  0  0  0  0  0  0
    7.4848   -4.9155    0.7117 H   0  0  0  0  0  0  0  0  0  0  0  0
    8.3368   -7.0317    1.6438 H   0  0  0  0  0  0  0  0  0  0  0  0
    5.3293  -10.8815    2.4480 H   0  0  0  0  0  0  0  0  0  0  0  0
    2.3937   -8.3641    1.3358 H   0  0  0  0  0  0  0  0  0  0  0  0
    2.7637   -9.8645    0.5163 H   0  0  0  0  0  0  0  0  0  0  0  0
    0.8060   -8.6056    3.1904 H   0  0  0  0  0  0  0  0  0  0  0  0
    0.2226  -10.6517    4.9967 H   0  0  0  0  0  0  0  0  0  0  0  0
    3.3818  -11.9008    2.4749 H   0  0  0  0  0  0  0  0  0  0  0  0
    3.5016   -6.6232    0.5508 H   0  0  0  0  0  0  0  0  0  0  0  0
    1.8613  -12.4944    4.4178 H   0  0  0  0  0  0  0  0  0  0  0  0
  1  2  1  0
  1 20  1  0
  1 21  1  0
  1 22  1  0
  2  3  1  0
  3  4  2  0
  3  5  1  0
  5 19  2  0
  5  6  1  0
  6  7  2  0
  6 23  1  0
  7  8  1  0
  7 24  1  0
  8 18  1  0
  8  9  2  0
  9 10  1  0
 10 11  2  0
 10 25  1  0
 11 12  1  0
 11 18  1  0
 12 13  1  0
 12 26  1  0
 12 27  1  0
 13 17  1  0
 13 14  1  0
 14 15  2  0
 14 28  1  0
 15 16  1  0
 15 29  1  0
 16 17  2  0
 16 32  1  0
 17 30  1  0
 18 19  1  0
 19 31  1  0
M  CHG  1  16   1
M  END
>  <i_m_ct_stereo_status>  (25) 
1

>  <s_m_source_file>  (25) 
/var/tmp/pbs.5076255.sched01/tmpgn4o3w3f/0whq8s7pj.sdf

>  <i_m_source_file_index>  (25) 
10

>  <i_lp_mmshare_version>  (25) 
48012

>  <i_f3d_flags>  (25) 
0

>  <s_epik_input>  (25) 
W0NIM11PQyg9TyljKFtjSF1bY0hdMSlbY0hdbihjMTIpYyhbY0hdbjIpW0NIMl1uM1tjSF1bY0hdbltjSF0z

>  <s_epik_cmdline>  (25) 
J2VwaWtfcHl0aG9uJywgJy1waHQnLCAnMi4wJywgJy1waCcsICc3LjAnLCAnLXRuJywgJzgnLCAnLW1hJywgJzIwMCcsICctaW1hZScsICc8aW5maWxlLm1hZT4nLCAnLW9tYWUnLCAnPG91dGZpbGUubWFlPic=

>  <r_lp_tautomer_probability>  (25) 
1

>  <r_epik_Ionization_Penalty>  (25) 
0.376812

>  <r_epik_Ionization_Penalty_Charging>  (25) 
0.00520277

>  <r_epik_Ionization_Penalty_Neutral>  (25) 
0.37161

>  <r_epik_State_Penalty>  (25) 
0.428556

>  <r_epik_Charging_Adjusted_Penalty>  (25) 
0.433758

>  <i_epik_Tot_Q>  (25) 
1

>  <i_epik_Tot_abs_Q>  (25) 
1

>  <s_epik_Chemistry_Notes>  (25) 
This compound has an ester and may undergo hydrolysis at high or low pH.

>  <s_lp_Force_Field>  (25) 
OPLS3e

>  <r_lp_Energy>  (25) 
20.4919

>  <b_lp_Chiralities_Consistent>  (25) 
1

>  <s_lp_Variant>  (25) 
5:0-2

>  <s_i_glide_gridfile>  (25) 
pfpi4k_grid

>  <i_i_glide_lignum>  (25) 
10

>  <i_i_glide_rotatable_bonds>  (25) 
4

>  <r_i_docking_score>  (25) 
-3.6707

>  <r_i_glide_ligand_efficiency>  (25) 
-0.193195

>  <r_i_glide_ligand_efficiency_sa>  (25) 
-0.515522

>  <r_i_glide_ligand_efficiency_ln>  (25) 
-0.930603

>  <r_i_glide_gscore>  (25) 
-3.6707

>  <r_i_glide_lipo>  (25) 
-0.342964

>  <r_i_glide_hbond>  (25) 
0

>  <r_i_glide_metal>  (25) 
-0

>  <r_i_glide_rewards>  (25) 
-2.00183

>  <r_i_glide_evdw>  (25) 
-23.2108

>  <r_i_glide_ecoul>  (25) 
-6.27608

>  <r_i_glide_erotb>  (25) 
0.799664

>  <r_i_glide_esite>  (25) 
-0.023625

>  <r_i_glide_emodel>  (25) 
-38.9268

>  <r_i_glide_energy>  (25) 
-29.4868

>  <r_i_glide_einternal>  (25) 
0.589773

>  <r_i_glide_intrahb_reward>  (25) 
-0

>  <i_i_glide_confnum>  (25) 
5

>  <i_i_glide_posenum>  (25) 
4

>  <r_i_glide_eff_state_penalty>  (25) 
0

>  <ligand_id>  (25) 
5

>  <original_smiles>  (25) 
COC(=O)c1ccc2ncc(Cn3ccnc3)n2c1

>  <smiles>  (25) 
[H]c1nc2c([H])c([H])c(C(=O)OC([H])([H])[H])c([H])n2c1C([H])([H])n1c([H])c([H])[n+]([H])c1[H]

$$$$
5:1:1
     RDKit          3D

 32 34  0  0  1  0  0  0  0  0999 V2000
    3.5307   -0.7149    0.7544 C   0  0  0  0  0  0  0  0  0  0  0  0
    2.8690   -1.5431    1.6946 O   0  0  0  0  0  0  0  0  0  0  0  0
    3.0822   -2.8775    1.7234 C   0  0  0  0  0  0  0  0  0  0  0  0
    3.8798   -3.4661    0.9909 O   0  0  0  0  0  0  0  0  0  0  0  0
    2.2309   -3.5647    2.7487 C   0  0  0  0  0  0  0  0  0  0  0  0
    1.4398   -2.8025    3.6546 C   0  0  0  0  0  0  0  0  0  0  0  0
    0.6529   -3.4224    4.5914 C   0  0  0  0  0  0  0  0  0  0  0  0
    0.6141   -4.8359    4.6686 C   0  0  0  0  0  0  0  0  0  0  0  0
   -0.0720   -5.6534    5.4619 N   0  0  0  0  0  0  0  0  0  0  0  0
    0.2794   -6.9367    5.0772 C   0  0  0  0  0  0  0  0  0  0  0  0
    1.1895   -6.9177    4.0503 C   0  0  0  0  0  0  0  0  0  0  0  0
    1.8525   -8.0572    3.3247 C   0  0  0  0  0  0  0  0  0  0  0  0
    1.5588   -9.3955    3.8703 N   0  0  0  0  0  0  0  0  0  0  0  0
    1.0733  -10.4691    3.1705 C   0  0  0  0  0  0  0  0  0  0  0  0
    0.9723  -11.5059    4.0666 C   0  0  0  0  0  0  0  0  0  0  0  0
    1.3961  -11.0274    5.2835 N   0  0  0  0  0  0  0  0  0  0  0  0
    1.7779   -9.7517    5.1459 C   0  0  0  0  0  0  0  0  0  0  0  0
    1.4137   -5.5710    3.7568 N   0  0  0  0  0  0  0  0  0  0  0  0
    2.2029   -4.9489    2.8224 C   0  0  0  0  0  0  0  0  0  0  0  0
    3.2265    0.3221    0.8984 H   0  0  0  0  0  0  0  0  0  0  0  0
    3.2702   -0.9987   -0.2645 H   0  0  0  0  0  0  0  0  0  0  0  0
    4.6126   -0.7637    0.8742 H   0  0  0  0  0  0  0  0  0  0  0  0
    1.4374   -1.7158    3.6224 H   0  0  0  0  0  0  0  0  0  0  0  0
    0.0508   -2.8362    5.2743 H   0  0  0  0  0  0  0  0  0  0  0  0
   -0.1513   -7.7854    5.5885 H   0  0  0  0  0  0  0  0  0  0  0  0
    1.5273   -8.0488    2.2852 H   0  0  0  0  0  0  0  0  0  0  0  0
    2.9340   -7.9301    3.3271 H   0  0  0  0  0  0  0  0  0  0  0  0
    0.8353  -10.4213    2.1115 H   0  0  0  0  0  0  0  0  0  0  0  0
    0.6224  -12.5214    3.9199 H   0  0  0  0  0  0  0  0  0  0  0  0
    2.1592   -9.1237    5.9309 H   0  0  0  0  0  0  0  0  0  0  0  0
    2.7812   -5.5871    2.1577 H   0  0  0  0  0  0  0  0  0  0  0  0
    1.4144  -11.5509    6.1721 H   0  0  0  0  0  0  0  0  0  0  0  0
  1  2  1  0
  1 20  1  0
  1 21  1  0
  1 22  1  0
  2  3  1  0
  3  4  2  0
  3  5  1  0
  5 19  2  0
  5  6  1  0
  6  7  2  0
  6 23  1  0
  7  8  1  0
  7 24  1  0
  8 18  1  0
  8  9  2  0
  9 10  1  0
 10 11  2  0
 10 25  1  0
 11 12  1  0
 11 18  1  0
 12 13  1  0
 12 26  1  0
 12 27  1  0
 13 17  1  0
 13 14  1  0
 14 15  2  0
 14 28  1  0
 15 16  1  0
 15 29  1  0
 16 17  2  0
 16 32  1  0
 17 30  1  0
 18 19  1  0
 19 31  1  0
M  CHG  1  16   1
M  END
>  <i_m_ct_stereo_status>  (26) 
1

>  <s_m_source_file>  (26) 
/var/tmp/pbs.5076255.sched01/tmpgn4o3w3f/0whq8s7pj.sdf

>  <i_m_source_file_index>  (26) 
10

>  <i_lp_mmshare_version>  (26) 
48012

>  <i_f3d_flags>  (26) 
0

>  <s_epik_input>  (26) 
W0NIM11PQyg9TyljKFtjSF1bY0hdMSlbY0hdbihjMTIpYyhbY0hdbjIpW0NIMl1uM1tjSF1bY0hdbltjSF0z

>  <s_epik_cmdline>  (26) 
J2VwaWtfcHl0aG9uJywgJy1waHQnLCAnMi4wJywgJy1waCcsICc3LjAnLCAnLXRuJywgJzgnLCAnLW1hJywgJzIwMCcsICctaW1hZScsICc8aW5maWxlLm1hZT4nLCAnLW9tYWUnLCAnPG91dGZpbGUubWFlPic=

>  <r_lp_tautomer_probability>  (26) 
1

>  <r_epik_Ionization_Penalty>  (26) 
0.376812

>  <r_epik_Ionization_Penalty_Charging>  (26) 
0.00520277

>  <r_epik_Ionization_Penalty_Neutral>  (26) 
0.37161

>  <r_epik_State_Penalty>  (26) 
0.428556

>  <r_epik_Charging_Adjusted_Penalty>  (26) 
0.433758

>  <i_epik_Tot_Q>  (26) 
1

>  <i_epik_Tot_abs_Q>  (26) 
1

>  <s_epik_Chemistry_Notes>  (26) 
This compound has an ester and may undergo hydrolysis at high or low pH.

>  <s_lp_Force_Field>  (26) 
OPLS3e

>  <r_lp_Energy>  (26) 
20.4919

>  <b_lp_Chiralities_Consistent>  (26) 
1

>  <s_lp_Variant>  (26) 
5:0-2

>  <s_i_glide_gridfile>  (26) 
pfpi4k_grid

>  <i_i_glide_lignum>  (26) 
10

>  <i_i_glide_rotatable_bonds>  (26) 
4

>  <r_i_docking_score>  (26) 
-3.37185

>  <r_i_glide_ligand_efficiency>  (26) 
-0.177466

>  <r_i_glide_ligand_efficiency_sa>  (26) 
-0.47355

>  <r_i_glide_ligand_efficiency_ln>  (26) 
-0.854836

>  <r_i_glide_gscore>  (26) 
-3.37185

>  <r_i_glide_lipo>  (26) 
-0.302662

>  <r_i_glide_hbond>  (26) 
-0.2

>  <r_i_glide_metal>  (26) 
-0

>  <r_i_glide_rewards>  (26) 
-1.65499

>  <r_i_glide_evdw>  (26) 
-17.588

>  <r_i_glide_ecoul>  (26) 
-6.43461

>  <r_i_glide_erotb>  (26) 
0.799664

>  <r_i_glide_esite>  (26) 
-0.169268

>  <r_i_glide_emodel>  (26) 
-32.364

>  <r_i_glide_energy>  (26) 
-24.0226

>  <r_i_glide_einternal>  (26) 
0.959159

>  <r_i_glide_intrahb_reward>  (26) 
-0

>  <i_i_glide_confnum>  (26) 
4

>  <i_i_glide_posenum>  (26) 
2

>  <r_i_glide_eff_state_penalty>  (26) 
0

>  <ligand_id>  (26) 
5

>  <original_smiles>  (26) 
COC(=O)c1ccc2ncc(Cn3ccnc3)n2c1

>  <smiles>  (26) 
[H]c1nc2c([H])c([H])c(C(=O)OC([H])([H])[H])c([H])n2c1C([H])([H])n1c([H])c([H])[n+]([H])c1[H]

$$$$
5:1:2
     RDKit          3D

 32 34  0  0  1  0  0  0  0  0999 V2000
    0.2088   -2.0764    4.0964 C   0  0  0  0  0  0  0  0  0  0  0  0
    0.2172   -3.3138    4.7913 O   0  0  0  0  0  0  0  0  0  0  0  0
   -0.1562   -3.3464    6.0874 C   0  0  0  0  0  0  0  0  0  0  0  0
   -0.5729   -2.3739    6.7133 O   0  0  0  0  0  0  0  0  0  0  0  0
   -0.0006   -4.6971    6.6974 C   0  0  0  0  0  0  0  0  0  0  0  0
    0.0741   -4.7894    8.1164 C   0  0  0  0  0  0  0  0  0  0  0  0
    0.2292   -6.0119    8.7163 C   0  0  0  0  0  0  0  0  0  0  0  0
    0.2991   -7.1747    7.9269 C   0  0  0  0  0  0  0  0  0  0  0  0
    0.4010   -8.4459    8.2952 N   0  0  0  0  0  0  0  0  0  0  0  0
    0.4200   -9.1762    7.1176 C   0  0  0  0  0  0  0  0  0  0  0  0
    0.3321   -8.3539    6.0058 C   0  0  0  0  0  0  0  0  0  0  0  0
    0.2941   -8.6745    4.5219 C   0  0  0  0  0  0  0  0  0  0  0  0
    1.1768   -9.7775    4.0899 N   0  0  0  0  0  0  0  0  0  0  0  0
    1.3147  -11.0171    4.6908 C   0  0  0  0  0  0  0  0  0  0  0  0
    2.2870  -11.6790    3.9855 C   0  0  0  0  0  0  0  0  0  0  0  0
    2.6270  -10.8850    2.9113 N   0  0  0  0  0  0  0  0  0  0  0  0
    1.9379   -9.7321    2.9721 C   0  0  0  0  0  0  0  0  0  0  0  0
    0.2343   -7.0600    6.5151 N   0  0  0  0  0  0  0  0  0  0  0  0
    0.0814   -5.8292    5.9181 C   0  0  0  0  0  0  0  0  0  0  0  0
    0.5341   -2.2295    3.0681 H   0  0  0  0  0  0  0  0  0  0  0  0
    0.8870   -1.3573    4.5562 H   0  0  0  0  0  0  0  0  0  0  0  0
   -0.7906   -1.6419    4.0783 H   0  0  0  0  0  0  0  0  0  0  0  0
    0.0320   -3.8992    8.7441 H   0  0  0  0  0  0  0  0  0  0  0  0
    0.3077   -6.1056    9.7970 H   0  0  0  0  0  0  0  0  0  0  0  0
    0.4915  -10.2451    7.2143 H   0  0  0  0  0  0  0  0  0  0  0  0
   -0.7167   -8.9516    4.2193 H   0  0  0  0  0  0  0  0  0  0  0  0
    0.5596   -7.7998    3.9211 H   0  0  0  0  0  0  0  0  0  0  0  0
    0.7707  -11.3578    5.5619 H   0  0  0  0  0  0  0  0  0  0  0  0
    2.7033  -12.6582    4.1667 H   0  0  0  0  0  0  0  0  0  0  0  0
    1.9831   -8.9327    2.2437 H   0  0  0  0  0  0  0  0  0  0  0  0
    0.0157   -5.8133    4.8326 H   0  0  0  0  0  0  0  0  0  0  0  0
    3.2568  -11.1673    2.1540 H   0  0  0  0  0  0  0  0  0  0  0  0
  1  2  1  0
  1 20  1  0
  1 21  1  0
  1 22  1  0
  2  3  1  0
  3  4  2  0
  3  5  1  0
  5 19  2  0
  5  6  1  0
  6  7  2  0
  6 23  1  0
  7  8  1  0
  7 24  1  0
  8 18  1  0
  8  9  2  0
  9 10  1  0
 10 11  2  0
 10 25  1  0
 11 12  1  0
 11 18  1  0
 12 13  1  0
 12 26  1  0
 12 27  1  0
 13 17  1  0
 13 14  1  0
 14 15  2  0
 14 28  1  0
 15 16  1  0
 15 29  1  0
 16 17  2  0
 16 32  1  0
 17 30  1  0
 18 19  1  0
 19 31  1  0
M  CHG  1  16   1
M  END
>  <i_m_ct_stereo_status>  (27) 
1

>  <s_m_source_file>  (27) 
/var/tmp/pbs.5076255.sched01/tmpgn4o3w3f/0whq8s7pj.sdf

>  <i_m_source_file_index>  (27) 
10

>  <i_lp_mmshare_version>  (27) 
48012

>  <i_f3d_flags>  (27) 
0

>  <s_epik_input>  (27) 
W0NIM11PQyg9TyljKFtjSF1bY0hdMSlbY0hdbihjMTIpYyhbY0hdbjIpW0NIMl1uM1tjSF1bY0hdbltjSF0z

>  <s_epik_cmdline>  (27) 
J2VwaWtfcHl0aG9uJywgJy1waHQnLCAnMi4wJywgJy1waCcsICc3LjAnLCAnLXRuJywgJzgnLCAnLW1hJywgJzIwMCcsICctaW1hZScsICc8aW5maWxlLm1hZT4nLCAnLW9tYWUnLCAnPG91dGZpbGUubWFlPic=

>  <r_lp_tautomer_probability>  (27) 
1

>  <r_epik_Ionization_Penalty>  (27) 
0.376812

>  <r_epik_Ionization_Penalty_Charging>  (27) 
0.00520277

>  <r_epik_Ionization_Penalty_Neutral>  (27) 
0.37161

>  <r_epik_State_Penalty>  (27) 
0.428556

>  <r_epik_Charging_Adjusted_Penalty>  (27) 
0.433758

>  <i_epik_Tot_Q>  (27) 
1

>  <i_epik_Tot_abs_Q>  (27) 
1

>  <s_epik_Chemistry_Notes>  (27) 
This compound has an ester and may undergo hydrolysis at high or low pH.

>  <s_lp_Force_Field>  (27) 
OPLS3e

>  <r_lp_Energy>  (27) 
20.4919

>  <b_lp_Chiralities_Consistent>  (27) 
1

>  <s_lp_Variant>  (27) 
5:0-2

>  <s_i_glide_gridfile>  (27) 
pfpi4k_grid

>  <i_i_glide_lignum>  (27) 
10

>  <i_i_glide_rotatable_bonds>  (27) 
4

>  <r_i_docking_score>  (27) 
-3.16427

>  <r_i_glide_ligand_efficiency>  (27) 
-0.16654

>  <r_i_glide_ligand_efficiency_sa>  (27) 
-0.444397

>  <r_i_glide_ligand_efficiency_ln>  (27) 
-0.80221

>  <r_i_glide_gscore>  (27) 
-3.16427

>  <r_i_glide_lipo>  (27) 
-0.0346138

>  <r_i_glide_hbond>  (27) 
-0.101371

>  <r_i_glide_metal>  (27) 
-0

>  <r_i_glide_rewards>  (27) 
-1.70408

>  <r_i_glide_evdw>  (27) 
-18.1686

>  <r_i_glide_ecoul>  (27) 
-7.55241

>  <r_i_glide_erotb>  (27) 
0.799664

>  <r_i_glide_esite>  (27) 
-0.0825804

>  <r_i_glide_emodel>  (27) 
-32.517

>  <r_i_glide_energy>  (27) 
-25.721

>  <r_i_glide_einternal>  (27) 
2.10409

>  <r_i_glide_intrahb_reward>  (27) 
-0

>  <i_i_glide_confnum>  (27) 
1

>  <i_i_glide_posenum>  (27) 
3

>  <r_i_glide_eff_state_penalty>  (27) 
0

>  <ligand_id>  (27) 
5

>  <original_smiles>  (27) 
COC(=O)c1ccc2ncc(Cn3ccnc3)n2c1

>  <smiles>  (27) 
[H]c1nc2c([H])c([H])c(C(=O)OC([H])([H])[H])c([H])n2c1C([H])([H])n1c([H])c([H])[n+]([H])c1[H]

$$$$
6:0:0
     RDKit          3D

 52 57  0  0  1  0  0  0  0  0999 V2000
    2.8465   -6.9768    3.5612 C   0  0  0  0  0  0  0  0  0  0  0  0
    2.7110   -5.5057    3.4240 N   0  0  1  0  0  0  0  0  0  0  0  0
    2.4934   -4.8297    4.7141 C   0  0  0  0  0  0  0  0  0  0  0  0
    2.7901   -3.3635    4.4363 C   0  0  0  0  0  0  0  0  0  0  0  0
    3.8830   -3.3733    3.3480 C   0  0  2  0  0  0  0  0  0  0  0  0
    3.7118   -2.1829    2.3783 C   0  0  0  0  0  0  0  0  0  0  0  0
    4.8195   -1.9643    1.3376 C   0  0  0  0  0  0  0  0  0  0  0  0
    4.9933   -2.9329    0.1229 C   0  0  1  0  0  0  0  0  0  0  0  0
    3.8822   -2.8934   -0.8674 C   0  0  0  0  0  0  0  0  0  0  0  0
    2.6447   -3.5363   -0.6944 C   0  0  0  0  0  0  0  0  0  0  0  0
    1.7654   -3.4666   -1.7953 C   0  0  0  0  0  0  0  0  0  0  0  0
    2.1724   -2.8134   -2.9841 C   0  0  0  0  0  0  0  0  0  0  0  0
    3.4701   -2.2696   -3.1260 C   0  0  0  0  0  0  0  0  0  0  0  0
    3.8193   -1.7021   -4.3165 O   0  0  0  0  0  0  0  0  0  0  0  0
    4.3717   -2.3456   -2.0465 C   0  0  0  0  0  0  0  0  0  0  0  0
    5.7093   -2.0624   -2.0245 O   0  0  0  0  0  0  0  0  0  0  0  0
    6.1915   -2.3336   -0.7025 C   0  0  2  0  0  0  0  0  0  0  0  0
    7.5066   -3.1647   -0.6636 C   0  0  1  0  0  0  0  0  0  0  0  0
    8.6048   -2.2725   -0.6889 O   0  0  0  0  0  0  0  0  0  0  0  0
    7.5919   -4.0471    0.5815 C   0  0  0  0  0  0  0  0  0  0  0  0
    6.5088   -4.6331    1.1309 C   0  0  0  0  0  0  0  0  0  0  0  0
    5.1445   -4.4271    0.5004 C   0  0  2  0  0  0  0  0  0  0  0  0
    5.1788   -5.2357   -0.6675 O   0  0  0  0  0  0  0  0  0  0  0  0
    3.8587   -4.9548    1.2206 C   0  0  2  0  0  0  0  0  0  0  0  0
    2.5373   -4.4462    0.5444 C   0  0  0  0  0  0  0  0  0  0  0  0
    3.8490   -4.8056    2.7662 C   0  0  2  0  0  0  0  0  0  0  0  0
    3.7265   -7.2490    4.1436 H   0  0  0  0  0  0  0  0  0  0  0  0
    2.9132   -7.4684    2.5900 H   0  0  0  0  0  0  0  0  0  0  0  0
    1.9765   -7.3947    4.0709 H   0  0  0  0  0  0  0  0  0  0  0  0
    1.4830   -4.9897    5.0970 H   0  0  0  0  0  0  0  0  0  0  0  0
    3.1963   -5.2104    5.4553 H   0  0  0  0  0  0  0  0  0  0  0  0
    1.8842   -2.8857    4.0633 H   0  0  0  0  0  0  0  0  0  0  0  0
    3.0913   -2.8350    5.3413 H   0  0  0  0  0  0  0  0  0  0  0  0
    4.8411   -3.2676    3.8597 H   0  0  0  0  0  0  0  0  0  0  0  0
    2.7379   -2.1607    1.8983 H   0  0  0  0  0  0  0  0  0  0  0  0
    3.7138   -1.2902    3.0047 H   0  0  0  0  0  0  0  0  0  0  0  0
    4.6613   -0.9609    0.9367 H   0  0  0  0  0  0  0  0  0  0  0  0
    5.7646   -1.9165    1.8809 H   0  0  0  0  0  0  0  0  0  0  0  0
    0.8071   -3.9583   -1.7627 H   0  0  0  0  0  0  0  0  0  0  0  0
    1.4680   -2.7694   -3.8015 H   0  0  0  0  0  0  0  0  0  0  0  0
    3.0583   -1.5339   -4.8524 H   0  0  0  0  0  0  0  0  0  0  0  0
    6.4220   -1.3330   -0.3325 H   0  0  0  0  0  0  0  0  0  0  0  0
    7.5642   -3.8117   -1.5415 H   0  0  0  0  0  0  0  0  0  0  0  0
    9.3038   -2.6136   -1.2425 H   0  0  0  0  0  0  0  0  0  0  0  0
    8.5714   -4.1824    1.0132 H   0  0  0  0  0  0  0  0  0  0  0  0
    6.5999   -5.2670    1.9982 H   0  0  0  0  0  0  0  0  0  0  0  0
    4.3798   -5.1186   -1.1683 H   0  0  0  0  0  0  0  0  0  0  0  0
    3.8716   -6.0372    1.0678 H   0  0  0  0  0  0  0  0  0  0  0  0
    1.8728   -3.9823    1.2727 H   0  0  0  0  0  0  0  0  0  0  0  0
    1.9902   -5.3300    0.2121 H   0  0  0  0  0  0  0  0  0  0  0  0
    4.7376   -5.3040    3.1471 H   0  0  0  0  0  0  0  0  0  0  0  0
    1.8866   -5.3216    2.8703 H   0  0  0  0  0  0  0  0  0  0  0  0
  1  2  1  0
  1 27  1  0
  1 28  1  0
  1 29  1  0
  2 26  1  0
  2  3  1  0
  2 52  1  6
  3  4  1  0
  3 30  1  0
  3 31  1  0
  4  5  1  0
  4 32  1  0
  4 33  1  0
  5 26  1  0
  5  6  1  0
  5 34  1  1
  6  7  1  0
  6 35  1  0
  6 36  1  0
  8  7  1  1
  7 37  1  0
  7 38  1  0
  8 17  1  0
  8 22  1  0
  8  9  1  0
  9 15  2  0
  9 10  1  0
 10 25  1  0
 10 11  2  0
 11 12  1  0
 11 39  1  0
 12 13  2  0
 12 40  1  0
 13 14  1  0
 13 15  1  0
 14 41  1  0
 15 16  1  0
 16 17  1  0
 17 18  1  0
 17 42  1  1
 18 19  1  0
 18 20  1  0
 18 43  1  6
 19 44  1  0
 20 21  2  0
 20 45  1  0
 21 22  1  0
 21 46  1  0
 22 23  1  6
 22 24  1  0
 23 47  1  0
 24 25  1  0
 24 26  1  0
 24 48  1  1
 25 49  1  0
 25 50  1  0
 26 51  1  1
M  CHG  1   2   1
M  END
>  <i_m_ct_stereo_status>  (28) 
1

>  <s_m_source_file>  (28) 
/var/tmp/pbs.5076255.sched01/tmpgn4o3w3f/0whq8s7pj.sdf

>  <i_m_source_file_index>  (28) 
11

>  <i_lp_mmshare_version>  (28) 
48012

>  <i_f3d_flags>  (28) 
0

>  <s_epik_input>  (28) 
W0NIM11OMVtDSDJdW0NIMl1bQ0BIXShbQ0gyXVtDSDJdMilbQ0BASF0xW0NAQEhdKFtDSDJdMylbQ0BdNChbT0hdKVtDSF09W0NIXVtDQEhdKFtPSF0pW0NASF01T2M2YyhbT0hdKVtjSF1bY0hdYzNjNltDQEBdMjQ1

>  <s_epik_cmdline>  (28) 
J2VwaWtfcHl0aG9uJywgJy1waHQnLCAnMi4wJywgJy1waCcsICc3LjAnLCAnLXRuJywgJzgnLCAnLW1hJywgJzIwMCcsICctaW1hZScsICc8aW5maWxlLm1hZT4nLCAnLW9tYWUnLCAnPG91dGZpbGUubWFlPic=

>  <r_lp_tautomer_probability>  (28) 
1

>  <r_epik_Ionization_Penalty>  (28) 
0.00365808

>  <r_epik_Ionization_Penalty_Charging>  (28) 
0.00169267

>  <r_epik_Ionization_Penalty_Neutral>  (28) 
0.00196541

>  <r_epik_State_Penalty>  (28) 
-0

>  <r_epik_Charging_Adjusted_Penalty>  (28) 
0.00169267

>  <i_epik_Tot_Q>  (28) 
1

>  <i_epik_Tot_abs_Q>  (28) 
1

>  <s_lp_Force_Field>  (28) 
OPLS3e

>  <r_lp_Energy>  (28) 
65.0789

>  <b_lp_Chiralities_Consistent>  (28) 
1

>  <s_lp_Variant>  (28) 
6:0-1

>  <s_i_glide_gridfile>  (28) 
pfpi4k_grid

>  <i_i_glide_lignum>  (28) 
11

>  <i_i_glide_rotatable_bonds>  (28) 
3

>  <r_i_docking_score>  (28) 
-4.10552

>  <r_i_glide_ligand_efficiency>  (28) 
-0.157905

>  <r_i_glide_ligand_efficiency_sa>  (28) 
-0.467792

>  <r_i_glide_ligand_efficiency_ln>  (28) 
-0.964169

>  <r_i_glide_gscore>  (28) 
-4.10552

>  <r_i_glide_lipo>  (28) 
-0.71078

>  <r_i_glide_hbond>  (28) 
0

>  <r_i_glide_metal>  (28) 
-0

>  <r_i_glide_rewards>  (28) 
-0.978849

>  <r_i_glide_evdw>  (28) 
-21.7175

>  <r_i_glide_ecoul>  (28) 
-8.86623

>  <r_i_glide_erotb>  (28) 
0

>  <r_i_glide_esite>  (28) 
-8.2177e-05

>  <r_i_glide_emodel>  (28) 
-37.8661

>  <r_i_glide_energy>  (28) 
-30.5838

>  <r_i_glide_einternal>  (28) 
1.16769

>  <r_i_glide_intrahb_reward>  (28) 
-0

>  <i_i_glide_confnum>  (28) 
1

>  <i_i_glide_posenum>  (28) 
1

>  <r_i_glide_eff_state_penalty>  (28) 
0

>  <ligand_id>  (28) 
6

>  <original_smiles>  (28) 
CN1CCC2CCC34c5c6ccc(O)c5OC3C(O)C=CC4(O)C(C6)C21

>  <smiles>  (28) 
[H]Oc1c([H])c([H])c2c3c1OC1([H])C([H])(O[H])C([H])=C([H])C4(O[H])C([H])(C2([H])[H])C2([H])C([H])(C([H])([H])C([H])([H])C314)C([H])([H])C([H])([H])[N+]2([H])C([H])([H])[H]

$$$$
6:0:1
     RDKit          3D

 52 57  0  0  1  0  0  0  0  0999 V2000
    2.0199   -2.9492   -3.1030 C   0  0  0  0  0  0  0  0  0  0  0  0
    3.3297   -3.3446   -2.5335 N   0  0  1  0  0  0  0  0  0  0  0  0
    4.4347   -3.1668   -3.4936 C   0  0  0  0  0  0  0  0  0  0  0  0
    5.6926   -3.1972   -2.6424 C   0  0  0  0  0  0  0  0  0  0  0  0
    5.2821   -2.5810   -1.2894 C   0  0  2  0  0  0  0  0  0  0  0  0
    6.0334   -3.2582   -0.1217 C   0  0  0  0  0  0  0  0  0  0  0  0
    5.8437   -2.6424    1.2723 C   0  0  0  0  0  0  0  0  0  0  0  0
    4.4947   -2.7927    2.0518 C   0  0  1  0  0  0  0  0  0  0  0  0
    4.1706   -4.1887    2.4665 C   0  0  0  0  0  0  0  0  0  0  0  0
    3.6389   -5.1769    1.6181 C   0  0  0  0  0  0  0  0  0  0  0  0
    3.3109   -6.4039    2.2278 C   0  0  0  0  0  0  0  0  0  0  0  0
    3.4900   -6.5684    3.6255 C   0  0  0  0  0  0  0  0  0  0  0  0
    3.9224   -5.4889    4.4373 C   0  0  0  0  0  0  0  0  0  0  0  0
    3.9915   -5.6328    5.7927 O   0  0  0  0  0  0  0  0  0  0  0  0
    4.2482   -4.2500    3.8479 C   0  0  0  0  0  0  0  0  0  0  0  0
    4.5034   -3.0556    4.4624 O   0  0  0  0  0  0  0  0  0  0  0  0
    4.7489   -2.0841    3.4341 C   0  0  2  0  0  0  0  0  0  0  0  0
    4.0087   -0.7306    3.6260 C   0  0  1  0  0  0  0  0  0  0  0  0
    4.8346    0.1320    4.3825 O   0  0  0  0  0  0  0  0  0  0  0  0
    3.6546   -0.0664    2.2955 C   0  0  0  0  0  0  0  0  0  0  0  0
    3.3062   -0.7769    1.2057 C   0  0  0  0  0  0  0  0  0  0  0  0
    3.2436   -2.2903    1.2911 C   0  0  2  0  0  0  0  0  0  0  0  0
    2.0786   -2.5343    2.0745 O   0  0  0  0  0  0  0  0  0  0  0  0
    3.0244   -3.1487   -0.0091 C   0  0  2  0  0  0  0  0  0  0  0  0
    3.2467   -4.6909    0.2146 C   0  0  0  0  0  0  0  0  0  0  0  0
    3.7340   -2.6251   -1.2879 C   0  0  2  0  0  0  0  0  0  0  0  0
    2.0096   -1.8873   -3.3435 H   0  0  0  0  0  0  0  0  0  0  0  0
    1.2063   -3.1594   -2.4100 H   0  0  0  0  0  0  0  0  0  0  0  0
    1.8256   -3.4959   -4.0256 H   0  0  0  0  0  0  0  0  0  0  0  0
    4.4287   -3.9343   -4.2699 H   0  0  0  0  0  0  0  0  0  0  0  0
    4.3489   -2.1932   -3.9793 H   0  0  0  0  0  0  0  0  0  0  0  0
    5.9868   -4.2375   -2.5130 H   0  0  0  0  0  0  0  0  0  0  0  0
    6.5268   -2.6778   -3.1158 H   0  0  0  0  0  0  0  0  0  0  0  0
    5.5720   -1.5291   -1.3156 H   0  0  0  0  0  0  0  0  0  0  0  0
    5.8721   -4.3319   -0.0825 H   0  0  0  0  0  0  0  0  0  0  0  0
    7.0967   -3.1646   -0.3511 H   0  0  0  0  0  0  0  0  0  0  0  0
    6.6187   -3.0894    1.8942 H   0  0  0  0  0  0  0  0  0  0  0  0
    6.1056   -1.5853    1.2084 H   0  0  0  0  0  0  0  0  0  0  0  0
    2.8640   -7.2004    1.6475 H   0  0  0  0  0  0  0  0  0  0  0  0
    3.2152   -7.5058    4.0827 H   0  0  0  0  0  0  0  0  0  0  0  0
    3.7704   -6.5014    6.0897 H   0  0  0  0  0  0  0  0  0  0  0  0
    5.8158   -1.8859    3.5495 H   0  0  0  0  0  0  0  0  0  0  0  0
    3.0784   -0.8859    4.1731 H   0  0  0  0  0  0  0  0  0  0  0  0
    4.9554   -0.2540    5.2380 H   0  0  0  0  0  0  0  0  0  0  0  0
    3.6713    1.0131    2.2658 H   0  0  0  0  0  0  0  0  0  0  0  0
    3.0241   -0.2856    0.2861 H   0  0  0  0  0  0  0  0  0  0  0  0
    1.3643   -2.0467    1.6926 H   0  0  0  0  0  0  0  0  0  0  0  0
    1.9647   -3.0455   -0.2485 H   0  0  0  0  0  0  0  0  0  0  0  0
    3.9481   -5.1135   -0.5020 H   0  0  0  0  0  0  0  0  0  0  0  0
    2.3091   -5.1946   -0.0198 H   0  0  0  0  0  0  0  0  0  0  0  0
    3.4081   -1.5976   -1.4437 H   0  0  0  0  0  0  0  0  0  0  0  0
    3.2861   -4.3456   -2.3318 H   0  0  0  0  0  0  0  0  0  0  0  0
  1  2  1  0
  1 27  1  0
  1 28  1  0
  1 29  1  0
  2 26  1  0
  2  3  1  0
  2 52  1  1
  3  4  1  0
  3 30  1  0
  3 31  1  0
  4  5  1  0
  4 32  1  0
  4 33  1  0
  5 26  1  0
  5  6  1  0
  5 34  1  6
  6  7  1  0
  6 35  1  0
  6 36  1  0
  8  7  1  6
  7 37  1  0
  7 38  1  0
  8 17  1  0
  8 22  1  0
  8  9  1  0
  9 15  2  0
  9 10  1  0
 10 25  1  0
 10 11  2  0
 11 12  1  0
 11 39  1  0
 12 13  2  0
 12 40  1  0
 13 14  1  0
 13 15  1  0
 14 41  1  0
 15 16  1  0
 16 17  1  0
 17 18  1  0
 17 42  1  6
 18 19  1  0
 18 20  1  0
 18 43  1  1
 19 44  1  0
 20 21  2  0
 20 45  1  0
 21 22  1  0
 21 46  1  0
 22 23  1  1
 22 24  1  0
 23 47  1  0
 24 25  1  0
 24 26  1  0
 24 48  1  6
 25 49  1  0
 25 50  1  0
 26 51  1  6
M  CHG  1   2   1
M  END
>  <i_m_ct_stereo_status>  (29) 
1

>  <s_m_source_file>  (29) 
/var/tmp/pbs.5076255.sched01/tmpgn4o3w3f/0whq8s7pj.sdf

>  <i_m_source_file_index>  (29) 
11

>  <i_lp_mmshare_version>  (29) 
48012

>  <i_f3d_flags>  (29) 
0

>  <s_epik_input>  (29) 
W0NIM11OMVtDSDJdW0NIMl1bQ0BIXShbQ0gyXVtDSDJdMilbQ0BASF0xW0NAQEhdKFtDSDJdMylbQ0BdNChbT0hdKVtDSF09W0NIXVtDQEhdKFtPSF0pW0NASF01T2M2YyhbT0hdKVtjSF1bY0hdYzNjNltDQEBdMjQ1

>  <s_epik_cmdline>  (29) 
J2VwaWtfcHl0aG9uJywgJy1waHQnLCAnMi4wJywgJy1waCcsICc3LjAnLCAnLXRuJywgJzgnLCAnLW1hJywgJzIwMCcsICctaW1hZScsICc8aW5maWxlLm1hZT4nLCAnLW9tYWUnLCAnPG91dGZpbGUubWFlPic=

>  <r_lp_tautomer_probability>  (29) 
1

>  <r_epik_Ionization_Penalty>  (29) 
0.00365808

>  <r_epik_Ionization_Penalty_Charging>  (29) 
0.00169267

>  <r_epik_Ionization_Penalty_Neutral>  (29) 
0.00196541

>  <r_epik_State_Penalty>  (29) 
-0

>  <r_epik_Charging_Adjusted_Penalty>  (29) 
0.00169267

>  <i_epik_Tot_Q>  (29) 
1

>  <i_epik_Tot_abs_Q>  (29) 
1

>  <s_lp_Force_Field>  (29) 
OPLS3e

>  <r_lp_Energy>  (29) 
65.0789

>  <b_lp_Chiralities_Consistent>  (29) 
1

>  <s_lp_Variant>  (29) 
6:0-1

>  <s_i_glide_gridfile>  (29) 
pfpi4k_grid

>  <i_i_glide_lignum>  (29) 
11

>  <i_i_glide_rotatable_bonds>  (29) 
3

>  <r_i_docking_score>  (29) 
-3.95381

>  <r_i_glide_ligand_efficiency>  (29) 
-0.152069

>  <r_i_glide_ligand_efficiency_sa>  (29) 
-0.450505

>  <r_i_glide_ligand_efficiency_ln>  (29) 
-0.928539

>  <r_i_glide_gscore>  (29) 
-3.95381

>  <r_i_glide_lipo>  (29) 
-0.877239

>  <r_i_glide_hbond>  (29) 
0

>  <r_i_glide_metal>  (29) 
-0

>  <r_i_glide_rewards>  (29) 
-0.978849

>  <r_i_glide_evdw>  (29) 
-21.2216

>  <r_i_glide_ecoul>  (29) 
-6.66706

>  <r_i_glide_erotb>  (29) 
0

>  <r_i_glide_esite>  (29) 
-0.0365808

>  <r_i_glide_emodel>  (29) 
-35.2721

>  <r_i_glide_energy>  (29) 
-27.8886

>  <r_i_glide_einternal>  (29) 
0.653293

>  <r_i_glide_intrahb_reward>  (29) 
-0

>  <i_i_glide_confnum>  (29) 
1

>  <i_i_glide_posenum>  (29) 
4

>  <r_i_glide_eff_state_penalty>  (29) 
0

>  <ligand_id>  (29) 
6

>  <original_smiles>  (29) 
CN1CCC2CCC34c5c6ccc(O)c5OC3C(O)C=CC4(O)C(C6)C21

>  <smiles>  (29) 
[H]Oc1c([H])c([H])c2c3c1OC1([H])C([H])(O[H])C([H])=C([H])C4(O[H])C([H])(C2([H])[H])C2([H])C([H])(C([H])([H])C([H])([H])C314)C([H])([H])C([H])([H])[N+]2([H])C([H])([H])[H]

$$$$
6:0:2
     RDKit          3D

 52 57  0  0  1  0  0  0  0  0999 V2000
    2.8389   -7.1398    3.3361 C   0  0  0  0  0  0  0  0  0  0  0  0
    2.6247   -5.6735    3.2499 N   0  0  1  0  0  0  0  0  0  0  0  0
    2.2714   -5.0673    4.5467 C   0  0  0  0  0  0  0  0  0  0  0  0
    2.4983   -3.5782    4.3484 C   0  0  0  0  0  0  0  0  0  0  0  0
    3.6633   -3.4744    3.3458 C   0  0  2  0  0  0  0  0  0  0  0  0
    3.4937   -2.2541    2.4134 C   0  0  0  0  0  0  0  0  0  0  0  0
    4.6586   -1.9259    1.4690 C   0  0  0  0  0  0  0  0  0  0  0  0
    4.9715   -2.8254    0.2296 C   0  0  1  0  0  0  0  0  0  0  0  0
    3.9245   -2.8022   -0.8322 C   0  0  0  0  0  0  0  0  0  0  0  0
    2.7153   -3.5204   -0.7680 C   0  0  0  0  0  0  0  0  0  0  0  0
    1.9046   -3.4568   -1.9217 C   0  0  0  0  0  0  0  0  0  0  0  0
    2.3380   -2.7258   -3.0533 C   0  0  0  0  0  0  0  0  0  0  0  0
    3.6162   -2.1117   -3.0825 C   0  0  0  0  0  0  0  0  0  0  0  0
    4.0584   -1.4899   -4.2132 O   0  0  0  0  0  0  0  0  0  0  0  0
    4.4551   -2.1790   -1.9455 C   0  0  0  0  0  0  0  0  0  0  0  0
    5.7726   -1.8288   -1.8348 O   0  0  0  0  0  0  0  0  0  0  0  0
    6.1865   -2.1250   -0.4884 C   0  0  2  0  0  0  0  0  0  0  0  0
    7.5456   -2.8824   -0.3868 C   0  0  1  0  0  0  0  0  0  0  0  0
    8.5914   -1.9339   -0.2920 O   0  0  0  0  0  0  0  0  0  0  0  0
    7.5962   -3.8140    0.8244 C   0  0  0  0  0  0  0  0  0  0  0  0
    6.5143   -4.4790    1.2751 C   0  0  0  0  0  0  0  0  0  0  0  0
    5.1903   -4.3243    0.5551 C   0  0  2  0  0  0  0  0  0  0  0  0
    5.3776   -5.0576   -0.6469 O   0  0  0  0  0  0  0  0  0  0  0  0
    3.8919   -4.9605    1.1563 C   0  0  2  0  0  0  0  0  0  0  0  0
    2.5854   -4.5008    0.4076 C   0  0  0  0  0  0  0  0  0  0  0  0
    3.7610   -4.8780    2.7017 C   0  0  2  0  0  0  0  0  0  0  0  0
    3.6901   -7.3853    3.9733 H   0  0  0  0  0  0  0  0  0  0  0  0
    3.0058   -7.5813    2.3562 H   0  0  0  0  0  0  0  0  0  0  0  0
    1.9636   -7.6294    3.7614 H   0  0  0  0  0  0  0  0  0  0  0  0
    1.2505   -5.3075    4.8480 H   0  0  0  0  0  0  0  0  0  0  0  0
    2.9450   -5.4413    5.3202 H   0  0  0  0  0  0  0  0  0  0  0  0
    1.5932   -3.1355    3.9321 H   0  0  0  0  0  0  0  0  0  0  0  0
    2.7012   -3.0707    5.2916 H   0  0  0  0  0  0  0  0  0  0  0  0
    4.5730   -3.3321    3.9300 H   0  0  0  0  0  0  0  0  0  0  0  0
    2.5586   -2.2673    1.8636 H   0  0  0  0  0  0  0  0  0  0  0  0
    3.3911   -1.3914    3.0706 H   0  0  0  0  0  0  0  0  0  0  0  0
    4.4633   -0.9169    1.0954 H   0  0  0  0  0  0  0  0  0  0  0  0
    5.5589   -1.8407    2.0780 H   0  0  0  0  0  0  0  0  0  0  0  0
    0.9741   -4.0103   -1.9537 H   0  0  0  0  0  0  0  0  0  0  0  0
    1.7162   -2.6892   -3.9363 H   0  0  0  0  0  0  0  0  0  0  0  0
    4.8293   -0.9765   -4.0338 H   0  0  0  0  0  0  0  0  0  0  0  0
    6.3286   -1.1289   -0.0666 H   0  0  0  0  0  0  0  0  0  0  0  0
    7.7037   -3.4847   -1.2821 H   0  0  0  0  0  0  0  0  0  0  0  0
    9.3499   -2.2266   -0.7876 H   0  0  0  0  0  0  0  0  0  0  0  0
    8.5499   -3.9135    1.3234 H   0  0  0  0  0  0  0  0  0  0  0  0
    6.5841   -5.1460    2.1199 H   0  0  0  0  0  0  0  0  0  0  0  0
    4.5808   -5.0347   -1.1606 H   0  0  0  0  0  0  0  0  0  0  0  0
    3.9834   -6.0335    0.9591 H   0  0  0  0  0  0  0  0  0  0  0  0
    1.8463   -4.1104    1.1042 H   0  0  0  0  0  0  0  0  0  0  0  0
    2.1186   -5.3965   -0.0002 H   0  0  0  0  0  0  0  0  0  0  0  0
    4.6499   -5.3418    3.1298 H   0  0  0  0  0  0  0  0  0  0  0  0
    1.8307   -5.5178    2.6413 H   0  0  0  0  0  0  0  0  0  0  0  0
  1  2  1  0
  1 27  1  0
  1 28  1  0
  1 29  1  0
  2 26  1  0
  2  3  1  0
  2 52  1  6
  3  4  1  0
  3 30  1  0
  3 31  1  0
  4  5  1  0
  4 32  1  0
  4 33  1  0
  5 26  1  0
  5  6  1  0
  5 34  1  1
  6  7  1  0
  6 35  1  0
  6 36  1  0
  8  7  1  1
  7 37  1  0
  7 38  1  0
  8 17  1  0
  8 22  1  0
  8  9  1  0
  9 15  2  0
  9 10  1  0
 10 25  1  0
 10 11  2  0
 11 12  1  0
 11 39  1  0
 12 13  2  0
 12 40  1  0
 13 14  1  0
 13 15  1  0
 14 41  1  0
 15 16  1  0
 16 17  1  0
 17 18  1  0
 17 42  1  1
 18 19  1  0
 18 20  1  0
 18 43  1  6
 19 44  1  0
 20 21  2  0
 20 45  1  0
 21 22  1  0
 21 46  1  0
 22 23  1  6
 22 24  1  0
 23 47  1  0
 24 25  1  0
 24 26  1  0
 24 48  1  1
 25 49  1  0
 25 50  1  0
 26 51  1  1
M  CHG  1   2   1
M  END
>  <i_m_ct_stereo_status>  (30) 
1

>  <s_m_source_file>  (30) 
/var/tmp/pbs.5076255.sched01/tmpgn4o3w3f/0whq8s7pj.sdf

>  <i_m_source_file_index>  (30) 
11

>  <i_lp_mmshare_version>  (30) 
48012

>  <i_f3d_flags>  (30) 
0

>  <s_epik_input>  (30) 
W0NIM11OMVtDSDJdW0NIMl1bQ0BIXShbQ0gyXVtDSDJdMilbQ0BASF0xW0NAQEhdKFtDSDJdMylbQ0BdNChbT0hdKVtDSF09W0NIXVtDQEhdKFtPSF0pW0NASF01T2M2YyhbT0hdKVtjSF1bY0hdYzNjNltDQEBdMjQ1

>  <s_epik_cmdline>  (30) 
J2VwaWtfcHl0aG9uJywgJy1waHQnLCAnMi4wJywgJy1waCcsICc3LjAnLCAnLXRuJywgJzgnLCAnLW1hJywgJzIwMCcsICctaW1hZScsICc8aW5maWxlLm1hZT4nLCAnLW9tYWUnLCAnPG91dGZpbGUubWFlPic=

>  <r_lp_tautomer_probability>  (30) 
1

>  <r_epik_Ionization_Penalty>  (30) 
0.00365808

>  <r_epik_Ionization_Penalty_Charging>  (30) 
0.00169267

>  <r_epik_Ionization_Penalty_Neutral>  (30) 
0.00196541

>  <r_epik_State_Penalty>  (30) 
-0

>  <r_epik_Charging_Adjusted_Penalty>  (30) 
0.00169267

>  <i_epik_Tot_Q>  (30) 
1

>  <i_epik_Tot_abs_Q>  (30) 
1

>  <s_lp_Force_Field>  (30) 
OPLS3e

>  <r_lp_Energy>  (30) 
65.0789

>  <b_lp_Chiralities_Consistent>  (30) 
1

>  <s_lp_Variant>  (30) 
6:0-1

>  <s_i_glide_gridfile>  (30) 
pfpi4k_grid

>  <i_i_glide_lignum>  (30) 
11

>  <i_i_glide_rotatable_bonds>  (30) 
3

>  <r_i_docking_score>  (30) 
-3.82464

>  <r_i_glide_ligand_efficiency>  (30) 
-0.147101

>  <r_i_glide_ligand_efficiency_sa>  (30) 
-0.435787

>  <r_i_glide_ligand_efficiency_ln>  (30) 
-0.898203

>  <r_i_glide_gscore>  (30) 
-3.82464

>  <r_i_glide_lipo>  (30) 
-0.657618

>  <r_i_glide_hbond>  (30) 
-0.0308263

>  <r_i_glide_metal>  (30) 
-0

>  <r_i_glide_rewards>  (30) 
-0.978849

>  <r_i_glide_evdw>  (30) 
-22.7429

>  <r_i_glide_ecoul>  (30) 
-6.7938

>  <r_i_glide_erotb>  (30) 
0

>  <r_i_glide_esite>  (30) 
-0.00112849

>  <r_i_glide_emodel>  (30) 
-36.316

>  <r_i_glide_energy>  (30) 
-29.5367

>  <r_i_glide_einternal>  (30) 
1.12074

>  <r_i_glide_intrahb_reward>  (30) 
-0

>  <i_i_glide_confnum>  (30) 
2

>  <i_i_glide_posenum>  (30) 
26

>  <r_i_glide_eff_state_penalty>  (30) 
0

>  <ligand_id>  (30) 
6

>  <original_smiles>  (30) 
CN1CCC2CCC34c5c6ccc(O)c5OC3C(O)C=CC4(O)C(C6)C21

>  <smiles>  (30) 
[H]Oc1c([H])c([H])c2c3c1OC1([H])C([H])(O[H])C([H])=C([H])C4(O[H])C([H])(C2([H])[H])C2([H])C([H])(C([H])([H])C([H])([H])C314)C([H])([H])C([H])([H])[N+]2([H])C([H])([H])[H]

$$$$
7:0:0
     RDKit          3D

 58 63  0  0  1  0  0  0  0  0999 V2000
    3.4863   -5.4513    5.1533 C   0  0  0  0  0  0  0  0  0  0  0  0
    3.0787   -4.1765    5.2484 C   0  0  0  0  0  0  0  0  0  0  0  0
    3.2853   -3.3019    6.4672 C   0  0  1  0  0  0  0  0  0  0  0  0
    4.7636   -2.9783    6.5598 C   0  0  0  0  0  0  0  0  0  0  0  0
    5.3974   -1.8932    6.0801 C   0  0  0  0  0  0  0  0  0  0  0  0
    4.8153   -0.7158    5.3121 C   0  0  0  0  0  0  0  0  0  0  0  0
    3.6826   -0.9843    4.2807 C   0  0  1  0  0  0  0  0  0  0  0  0
    4.2439   -1.3445    2.9101 C   0  0  0  0  0  0  0  0  0  0  0  0
    4.5631   -2.6112    2.7237 C   0  0  0  0  0  0  0  0  0  0  0  0
    3.5082   -3.1346    1.8024 C   0  0  2  0  0  0  0  0  0  0  0  0
    2.4487   -3.8317    2.6927 C   0  0  0  0  0  0  0  0  0  0  0  0
    2.3238   -3.3777    4.2024 C   0  0  2  0  0  0  0  0  0  0  0  0
    2.4386   -1.8848    4.7038 C   0  0  1  0  0  0  0  0  0  0  0  0
    2.3851   -2.0711    6.2446 C   0  0  1  0  0  0  0  0  0  0  0  0
    0.9604   -2.2886    6.8054 C   0  0  0  0  0  0  0  0  0  0  0  0
    4.0222   -3.8908    0.5631 C   0  0  0  0  0  0  0  0  0  0  0  0
    5.0036   -3.1282   -0.3884 C   0  0  1  0  0  0  0  0  0  0  0  0
    6.4614   -3.1724    0.1252 C   0  0  0  0  0  0  0  0  0  0  0  0
    5.0140   -3.9207   -1.6932 C   0  0  0  0  0  0  0  0  0  0  0  0
    4.6518   -3.4663   -2.9052 C   0  0  0  0  0  0  0  0  0  0  0  0
    4.2039   -2.0900   -3.0801 C   0  0  0  0  0  0  0  0  0  0  0  0
    3.8626   -1.6686   -4.1842 O   0  0  0  0  0  0  0  0  0  0  0  0
    4.2125   -1.2222   -1.8970 C   0  0  0  0  0  0  0  0  0  0  0  0
    4.5648   -1.6596   -0.6643 C   0  0  0  0  0  0  0  0  0  0  0  0
    4.5984   -0.6539    0.5061 C   0  0  0  0  0  0  0  0  0  0  0  0
    3.5476   -0.8796    1.6406 C   0  0  2  0  0  0  0  0  0  0  0  0
    2.5645    0.2989    1.7637 C   0  0  0  0  0  0  0  0  0  0  0  0
    2.7993   -2.0162    1.2891 O   0  0  0  0  0  0  0  0  0  0  0  0
    3.3001   -6.0533    4.2774 H   0  0  0  0  0  0  0  0  0  0  0  0
    4.0142   -5.9190    5.9716 H   0  0  0  0  0  0  0  0  0  0  0  0
    3.0060   -3.8368    7.3742 H   0  0  0  0  0  0  0  0  0  0  0  0
    5.3524   -3.7094    7.0914 H   0  0  0  0  0  0  0  0  0  0  0  0
    6.4531   -1.8010    6.2861 H   0  0  0  0  0  0  0  0  0  0  0  0
    4.4862    0.0183    6.0507 H   0  0  0  0  0  0  0  0  0  0  0  0
    5.6437   -0.2275    4.7962 H   0  0  0  0  0  0  0  0  0  0  0  0
    3.2761    0.0186    4.1770 H   0  0  0  0  0  0  0  0  0  0  0  0
    4.8724   -3.2493    3.5385 H   0  0  0  0  0  0  0  0  0  0  0  0
    1.4762   -3.6726    2.2337 H   0  0  0  0  0  0  0  0  0  0  0  0
    2.5873   -4.9088    2.6325 H   0  0  0  0  0  0  0  0  0  0  0  0
    1.2994   -3.6583    4.4284 H   0  0  0  0  0  0  0  0  0  0  0  0
    1.5445   -1.3547    4.3752 H   0  0  0  0  0  0  0  0  0  0  0  0
    2.7613   -1.2014    6.7782 H   0  0  0  0  0  0  0  0  0  0  0  0
    0.4874   -3.1940    6.4311 H   0  0  0  0  0  0  0  0  0  0  0  0
    0.3087   -1.4491    6.5657 H   0  0  0  0  0  0  0  0  0  0  0  0
    0.9832   -2.3768    7.8915 H   0  0  0  0  0  0  0  0  0  0  0  0
    4.4556   -4.8432    0.8692 H   0  0  0  0  0  0  0  0  0  0  0  0
    3.1352   -4.1479   -0.0168 H   0  0  0  0  0  0  0  0  0  0  0  0
    7.1371   -2.7192   -0.6015 H   0  0  0  0  0  0  0  0  0  0  0  0
    6.7993   -4.1989    0.2697 H   0  0  0  0  0  0  0  0  0  0  0  0
    6.6080   -2.6514    1.0681 H   0  0  0  0  0  0  0  0  0  0  0  0
    5.3160   -4.9563   -1.6006 H   0  0  0  0  0  0  0  0  0  0  0  0
    4.6640   -4.1110   -3.7715 H   0  0  0  0  0  0  0  0  0  0  0  0
    3.9358   -0.1943   -2.0589 H   0  0  0  0  0  0  0  0  0  0  0  0
    5.6051   -0.6279    0.9203 H   0  0  0  0  0  0  0  0  0  0  0  0
    4.4518    0.3463    0.0996 H   0  0  0  0  0  0  0  0  0  0  0  0
    3.0564    1.2126    2.0967 H   0  0  0  0  0  0  0  0  0  0  0  0
    1.7421    0.0791    2.4429 H   0  0  0  0  0  0  0  0  0  0  0  0
    2.1022    0.5125    0.8015 H   0  0  0  0  0  0  0  0  0  0  0  0
  1  2  2  0
  1 29  1  0
  1 30  1  0
  2 12  1  0
  2  3  1  0
  3 14  1  0
  3  4  1  0
  3 31  1  1
  4  5  2  0
  4 32  1  0
  5  6  1  0
  5 33  1  0
  6  7  1  0
  6 34  1  0
  6 35  1  0
  7 13  1  0
  7  8  1  0
  7 36  1  6
  8 26  1  0
  8  9  2  0
  9 10  1  0
  9 37  1  0
 10 28  1  0
 10 11  1  1
 10 16  1  0
 11 12  1  0
 11 38  1  0
 11 39  1  0
 12 13  1  0
 12 40  1  1
 13 14  1  0
 13 41  1  6
 14 15  1  0
 14 42  1  1
 15 43  1  0
 15 44  1  0
 15 45  1  0
 16 17  1  0
 16 46  1  0
 16 47  1  0
 17 24  1  0
 17 18  1  1
 17 19  1  0
 18 48  1  0
 18 49  1  0
 18 50  1  0
 19 20  2  0
 19 51  1  0
 20 21  1  0
 20 52  1  0
 21 22  2  0
 21 23  1  0
 23 24  2  0
 23 53  1  0
 24 25  1  0
 25 26  1  0
 25 54  1  0
 25 55  1  0
 26 27  1  1
 26 28  1  0
 27 56  1  0
 27 57  1  0
 27 58  1  0
M  END
>  <i_m_ct_stereo_status>  (31) 
1

>  <s_m_source_file>  (31) 
/var/tmp/pbs.5076255.sched01/tmpgn4o3w3f/0whq8s7pj.sdf

>  <i_m_source_file_index>  (31) 
12

>  <i_lp_mmshare_version>  (31) 
48012

>  <i_f3d_flags>  (31) 
0

>  <s_epik_input>  (31) 
W0NIMl0xW0NIXT1bQ0hdW0NAQEhdKFtDQEBIXTJbQ0gzXSlDKD1bQ0gyXSlbQ0BIXShbQ0gyXTMpW0NAQEhdMltDQEBIXTFDKD1bQ0hdW0NAXTM0NSlbQ0BAXShPNSkoW0NIM10pW0NIMl1DNltDQF0oW0NIMl00KShbQ0gzXSlbQ0hdPVtDSF1DKD1PKVtDSF09Ng==

>  <s_epik_cmdline>  (31) 
J2VwaWtfcHl0aG9uJywgJy1waHQnLCAnMi4wJywgJy1waCcsICc3LjAnLCAnLXRuJywgJzgnLCAnLW1hJywgJzIwMCcsICctaW1hZScsICc8aW5maWxlLm1hZT4nLCAnLW9tYWUnLCAnPG91dGZpbGUubWFlPic=

>  <r_lp_tautomer_probability>  (31) 
1

>  <r_epik_Ionization_Penalty>  (31) 
3.17187e-13

>  <r_epik_Ionization_Penalty_Charging>  (31) 
0

>  <r_epik_Ionization_Penalty_Neutral>  (31) 
3.17187e-13

>  <r_epik_State_Penalty>  (31) 
-0

>  <r_epik_Charging_Adjusted_Penalty>  (31) 
0

>  <i_epik_Tot_Q>  (31) 
0

>  <i_epik_Tot_abs_Q>  (31) 
0

>  <s_lp_Force_Field>  (31) 
OPLS3e

>  <r_lp_Energy>  (31) 
89.8466

>  <b_lp_Chiralities_Consistent>  (31) 
1

>  <s_lp_Variant>  (31) 
7:0-1

>  <s_i_glide_gridfile>  (31) 
pfpi4k_grid

>  <i_i_glide_lignum>  (31) 
12

>  <i_i_glide_rotatable_bonds>  (31) 
0

>  <r_i_docking_score>  (31) 
-3.32532

>  <r_i_glide_ligand_efficiency>  (31) 
-0.118761

>  <r_i_glide_ligand_efficiency_sa>  (31) 
-0.360629

>  <r_i_glide_ligand_efficiency_ln>  (31) 
-0.767581

>  <r_i_glide_gscore>  (31) 
-3.32532

>  <r_i_glide_lipo>  (31) 
-0.410059

>  <r_i_glide_hbond>  (31) 
-0.248968

>  <r_i_glide_metal>  (31) 
-0

>  <r_i_glide_rewards>  (31) 
-1.01526

>  <r_i_glide_evdw>  (31) 
-28.9731

>  <r_i_glide_ecoul>  (31) 
-1.34916

>  <r_i_glide_erotb>  (31) 
0

>  <r_i_glide_esite>  (31) 
0

>  <r_i_glide_emodel>  (31) 
-36.8556

>  <r_i_glide_energy>  (31) 
-30.3223

>  <r_i_glide_einternal>  (31) 
0

>  <r_i_glide_intrahb_reward>  (31) 
-0

>  <i_i_glide_confnum>  (31) 
1

>  <i_i_glide_posenum>  (31) 
3

>  <r_i_glide_eff_state_penalty>  (31) 
0

>  <ligand_id>  (31) 
7

>  <original_smiles>  (31) 
C=C1C2C=CCC3C4=CC5(CC1C3C2C)CC1(C)C=CC(=O)C=C1CC4(C)O5

>  <smiles>  (31) 
[H]C([H])=C1C2([H])C([H])=C([H])C([H])([H])C3([H])C4=C([H])C5(OC4(C([H])([H])[H])C([H])([H])C4=C([H])C(=O)C([H])=C([H])C4(C([H])([H])[H])C5([H])[H])C([H])([H])C1([H])C3([H])C2([H])C([H])([H])[H]

$$$$
7:0:1
     RDKit          3D

 58 63  0  0  1  0  0  0  0  0999 V2000
    2.6505  -11.1368    3.6810 C   0  0  0  0  0  0  0  0  0  0  0  0
    1.8520  -10.0827    3.4625 C   0  0  0  0  0  0  0  0  0  0  0  0
    0.6278   -9.7560    4.2848 C   0  0  1  0  0  0  0  0  0  0  0  0
    1.1004   -9.2871    5.6448 C   0  0  0  0  0  0  0  0  0  0  0  0
    1.3098   -8.0190    6.0423 C   0  0  0  0  0  0  0  0  0  0  0  0
    1.1361   -6.7327    5.2472 C   0  0  0  0  0  0  0  0  0  0  0  0
    1.5290   -6.7253    3.7425 C   0  0  1  0  0  0  0  0  0  0  0  0
    3.0124   -6.4198    3.5426 C   0  0  0  0  0  0  0  0  0  0  0  0
    3.8383   -7.4392    3.6489 C   0  0  0  0  0  0  0  0  0  0  0  0
    4.2895   -7.6966    2.2493 C   0  0  2  0  0  0  0  0  0  0  0  0
    3.4129   -8.8492    1.7069 C   0  0  0  0  0  0  0  0  0  0  0  0
    1.9809   -9.0560    2.3567 C   0  0  2  0  0  0  0  0  0  0  0  0
    1.0078   -7.8949    2.7982 C   0  0  1  0  0  0  0  0  0  0  0  0
   -0.1365   -8.6878    3.4823 C   0  0  1  0  0  0  0  0  0  0  0  0
   -1.1439   -9.3187    2.4946 C   0  0  0  0  0  0  0  0  0  0  0  0
    5.8074   -7.8032    2.0513 C   0  0  0  0  0  0  0  0  0  0  0  0
    6.6731   -6.5810    2.4970 C   0  0  1  0  0  0  0  0  0  0  0  0
    6.9716   -6.6083    4.0092 C   0  0  0  0  0  0  0  0  0  0  0  0
    8.0185   -6.7777    1.8195 C   0  0  0  0  0  0  0  0  0  0  0  0
    8.5882   -5.9300    0.9439 C   0  0  0  0  0  0  0  0  0  0  0  0
    7.9414   -4.6702    0.5810 C   0  0  0  0  0  0  0  0  0  0  0  0
    8.4738   -3.8960   -0.2104 O   0  0  0  0  0  0  0  0  0  0  0  0
    6.6574   -4.3607    1.2145 C   0  0  0  0  0  0  0  0  0  0  0  0
    6.0631   -5.2028    2.0832 C   0  0  0  0  0  0  0  0  0  0  0  0
    4.7444   -4.7625    2.7470 C   0  0  0  0  0  0  0  0  0  0  0  0
    3.4795   -5.5874    2.3612 C   0  0  2  0  0  0  0  0  0  0  0  0
    2.4337   -4.7217    1.6432 C   0  0  0  0  0  0  0  0  0  0  0  0
    3.8888   -6.5817    1.4603 O   0  0  0  0  0  0  0  0  0  0  0  0
    3.4966  -11.3593    3.0459 H   0  0  0  0  0  0  0  0  0  0  0  0
    2.4505  -11.8122    4.5038 H   0  0  0  0  0  0  0  0  0  0  0  0
    0.0308  -10.6542    4.4366 H   0  0  0  0  0  0  0  0  0  0  0  0
    1.2692  -10.0826    6.3578 H   0  0  0  0  0  0  0  0  0  0  0  0
    1.6034   -7.8575    7.0673 H   0  0  0  0  0  0  0  0  0  0  0  0
    0.0965   -6.4180    5.3635 H   0  0  0  0  0  0  0  0  0  0  0  0
    1.7110   -5.9586    5.7591 H   0  0  0  0  0  0  0  0  0  0  0  0
    1.0013   -5.8338    3.4114 H   0  0  0  0  0  0  0  0  0  0  0  0
    3.5814   -8.2962    4.2473 H   0  0  0  0  0  0  0  0  0  0  0  0
    3.2776   -8.6802    0.6398 H   0  0  0  0  0  0  0  0  0  0  0  0
    3.9798   -9.7806    1.7283 H   0  0  0  0  0  0  0  0  0  0  0  0
    1.4511   -9.5647    1.5606 H   0  0  0  0  0  0  0  0  0  0  0  0
    0.6287   -7.4246    1.8922 H   0  0  0  0  0  0  0  0  0  0  0  0
   -0.7456   -8.0671    4.1357 H   0  0  0  0  0  0  0  0  0  0  0  0
   -0.6918  -10.0773    1.8586 H   0  0  0  0  0  0  0  0  0  0  0  0
   -1.6149   -8.5714    1.8546 H   0  0  0  0  0  0  0  0  0  0  0  0
   -1.9418   -9.8303    3.0346 H   0  0  0  0  0  0  0  0  0  0  0  0
    6.1800   -8.7195    2.5162 H   0  0  0  0  0  0  0  0  0  0  0  0
    5.9577   -7.9385    0.9786 H   0  0  0  0  0  0  0  0  0  0  0  0
    7.6587   -5.8056    4.2789 H   0  0  0  0  0  0  0  0  0  0  0  0
    7.4535   -7.5434    4.2993 H   0  0  0  0  0  0  0  0  0  0  0  0
    6.0846   -6.4978    4.6292 H   0  0  0  0  0  0  0  0  0  0  0  0
    8.5495   -7.6875    2.0678 H   0  0  0  0  0  0  0  0  0  0  0  0
    9.5306   -6.1591    0.4891 H   0  0  0  0  0  0  0  0  0  0  0  0
    6.2176   -3.3990    0.9710 H   0  0  0  0  0  0  0  0  0  0  0  0
    4.8811   -4.7676    3.8287 H   0  0  0  0  0  0  0  0  0  0  0  0
    4.5661   -3.7137    2.5000 H   0  0  0  0  0  0  0  0  0  0  0  0
    2.0099   -3.9653    2.3011 H   0  0  0  0  0  0  0  0  0  0  0  0
    1.6281   -5.3263    1.2393 H   0  0  0  0  0  0  0  0  0  0  0  0
    2.8836   -4.2034    0.8002 H   0  0  0  0  0  0  0  0  0  0  0  0
  1  2  2  0
  1 29  1  0
  1 30  1  0
  2 12  1  0
  2  3  1  0
  3 14  1  0
  3  4  1  0
  3 31  1  1
  4  5  2  0
  4 32  1  0
  5  6  1  0
  5 33  1  0
  6  7  1  0
  6 34  1  0
  6 35  1  0
  7 13  1  0
  7  8  1  0
  7 36  1  6
  8 26  1  0
  8  9  2  0
  9 10  1  0
  9 37  1  0
 10 28  1  0
 10 11  1  6
 10 16  1  0
 11 12  1  0
 11 38  1  0
 11 39  1  0
 12 13  1  0
 12 40  1  6
 13 14  1  0
 13 41  1  6
 14 15  1  0
 14 42  1  1
 15 43  1  0
 15 44  1  0
 15 45  1  0
 16 17  1  0
 16 46  1  0
 16 47  1  0
 17 24  1  0
 17 18  1  1
 17 19  1  0
 18 48  1  0
 18 49  1  0
 18 50  1  0
 19 20  2  0
 19 51  1  0
 20 21  1  0
 20 52  1  0
 21 22  2  0
 21 23  1  0
 23 24  2  0
 23 53  1  0
 24 25  1  0
 25 26  1  0
 25 54  1  0
 25 55  1  0
 26 27  1  6
 26 28  1  0
 27 56  1  0
 27 57  1  0
 27 58  1  0
M  END
>  <i_m_ct_stereo_status>  (32) 
1

>  <s_m_source_file>  (32) 
/var/tmp/pbs.5076255.sched01/tmpgn4o3w3f/0whq8s7pj.sdf

>  <i_m_source_file_index>  (32) 
12

>  <i_lp_mmshare_version>  (32) 
48012

>  <i_f3d_flags>  (32) 
0

>  <s_epik_input>  (32) 
W0NIMl0xW0NIXT1bQ0hdW0NAQEhdKFtDQEBIXTJbQ0gzXSlDKD1bQ0gyXSlbQ0BIXShbQ0gyXTMpW0NAQEhdMltDQEBIXTFDKD1bQ0hdW0NAXTM0NSlbQ0BAXShPNSkoW0NIM10pW0NIMl1DNltDQF0oW0NIMl00KShbQ0gzXSlbQ0hdPVtDSF1DKD1PKVtDSF09Ng==

>  <s_epik_cmdline>  (32) 
J2VwaWtfcHl0aG9uJywgJy1waHQnLCAnMi4wJywgJy1waCcsICc3LjAnLCAnLXRuJywgJzgnLCAnLW1hJywgJzIwMCcsICctaW1hZScsICc8aW5maWxlLm1hZT4nLCAnLW9tYWUnLCAnPG91dGZpbGUubWFlPic=

>  <r_lp_tautomer_probability>  (32) 
1

>  <r_epik_Ionization_Penalty>  (32) 
3.17187e-13

>  <r_epik_Ionization_Penalty_Charging>  (32) 
0

>  <r_epik_Ionization_Penalty_Neutral>  (32) 
3.17187e-13

>  <r_epik_State_Penalty>  (32) 
-0

>  <r_epik_Charging_Adjusted_Penalty>  (32) 
0

>  <i_epik_Tot_Q>  (32) 
0

>  <i_epik_Tot_abs_Q>  (32) 
0

>  <s_lp_Force_Field>  (32) 
OPLS3e

>  <r_lp_Energy>  (32) 
89.8466

>  <b_lp_Chiralities_Consistent>  (32) 
1

>  <s_lp_Variant>  (32) 
7:0-1

>  <s_i_glide_gridfile>  (32) 
pfpi4k_grid

>  <i_i_glide_lignum>  (32) 
12

>  <i_i_glide_rotatable_bonds>  (32) 
0

>  <r_i_docking_score>  (32) 
-3.25552

>  <r_i_glide_ligand_efficiency>  (32) 
-0.116268

>  <r_i_glide_ligand_efficiency_sa>  (32) 
-0.35306

>  <r_i_glide_ligand_efficiency_ln>  (32) 
-0.751469

>  <r_i_glide_gscore>  (32) 
-3.25552

>  <r_i_glide_lipo>  (32) 
-0.506457

>  <r_i_glide_hbond>  (32) 
0

>  <r_i_glide_metal>  (32) 
-0

>  <r_i_glide_rewards>  (32) 
-1.0715

>  <r_i_glide_evdw>  (32) 
-29.6547

>  <r_i_glide_ecoul>  (32) 
-1.29884

>  <r_i_glide_erotb>  (32) 
0

>  <r_i_glide_esite>  (32) 
0

>  <r_i_glide_emodel>  (32) 
-37.326

>  <r_i_glide_energy>  (32) 
-30.9536

>  <r_i_glide_einternal>  (32) 
0

>  <r_i_glide_intrahb_reward>  (32) 
-0

>  <i_i_glide_confnum>  (32) 
1

>  <i_i_glide_posenum>  (32) 
1

>  <r_i_glide_eff_state_penalty>  (32) 
0

>  <ligand_id>  (32) 
7

>  <original_smiles>  (32) 
C=C1C2C=CCC3C4=CC5(CC1C3C2C)CC1(C)C=CC(=O)C=C1CC4(C)O5

>  <smiles>  (32) 
[H]C([H])=C1C2([H])C([H])=C([H])C([H])([H])C3([H])C4=C([H])C5(OC4(C([H])([H])[H])C([H])([H])C4=C([H])C(=O)C([H])=C([H])C4(C([H])([H])[H])C5([H])[H])C([H])([H])C1([H])C3([H])C2([H])C([H])([H])[H]

$$$$
7:0:2
     RDKit          3D

 58 63  0  0  1  0  0  0  0  0999 V2000
    6.6043  -10.7706    7.3793 C   0  0  0  0  0  0  0  0  0  0  0  0
    7.0446  -10.4003    6.1682 C   0  0  0  0  0  0  0  0  0  0  0  0
    8.1847  -11.0684    5.4379 C   0  0  1  0  0  0  0  0  0  0  0  0
    7.7068  -12.4364    4.9932 C   0  0  0  0  0  0  0  0  0  0  0  0
    7.1708  -12.7735    3.8074 C   0  0  0  0  0  0  0  0  0  0  0  0
    6.8943  -11.8884    2.6026 C   0  0  0  0  0  0  0  0  0  0  0  0
    6.3961  -10.4371    2.8464 C   0  0  1  0  0  0  0  0  0  0  0  0
    4.8794  -10.3737    2.9938 C   0  0  0  0  0  0  0  0  0  0  0  0
    4.3991  -10.6299    4.1883 C   0  0  0  0  0  0  0  0  0  0  0  0
    3.9293   -9.3061    4.6904 C   0  0  2  0  0  0  0  0  0  0  0  0
    5.0544   -8.7415    5.5830 C   0  0  0  0  0  0  0  0  0  0  0  0
    6.5306   -9.2529    5.3225 C   0  0  2  0  0  0  0  0  0  0  0  0
    7.1551   -9.5173    3.8996 C   0  0  1  0  0  0  0  0  0  0  0  0
    8.5310  -10.1222    4.2773 C   0  0  1  0  0  0  0  0  0  0  0  0
    9.5889   -9.0737    4.6882 C   0  0  0  0  0  0  0  0  0  0  0  0
    2.5012   -9.2802    5.2479 C   0  0  0  0  0  0  0  0  0  0  0  0
    1.3550   -9.7241    4.2922 C   0  0  1  0  0  0  0  0  0  0  0  0
    1.1977  -11.2615    4.2597 C   0  0  0  0  0  0  0  0  0  0  0  0
    0.0723   -9.1932    4.9325 C   0  0  0  0  0  0  0  0  0  0  0  0
   -0.8035   -8.3509    4.3553 C   0  0  0  0  0  0  0  0  0  0  0  0
   -0.5852   -7.8465    2.9990 C   0  0  0  0  0  0  0  0  0  0  0  0
   -1.3638   -7.0506    2.4796 O   0  0  0  0  0  0  0  0  0  0  0  0
    0.6092   -8.3190    2.2887 C   0  0  0  0  0  0  0  0  0  0  0  0
    1.5006   -9.1651    2.8447 C   0  0  0  0  0  0  0  0  0  0  0  0
    2.6835   -9.6507    1.9855 C   0  0  0  0  0  0  0  0  0  0  0  0
    4.0999   -9.1907    2.4375 C   0  0  2  0  0  0  0  0  0  0  0  0
    4.7862   -8.3188    1.3736 C   0  0  0  0  0  0  0  0  0  0  0  0
    3.9199   -8.4061    3.5848 O   0  0  0  0  0  0  0  0  0  0  0  0
    5.8014  -10.2522    7.8827 H   0  0  0  0  0  0  0  0  0  0  0  0
    7.0594  -11.6074    7.8924 H   0  0  0  0  0  0  0  0  0  0  0  0
    9.0330  -11.2121    6.1075 H   0  0  0  0  0  0  0  0  0  0  0  0
    7.8338  -13.2153    5.7310 H   0  0  0  0  0  0  0  0  0  0  0  0
    6.9280  -13.8105    3.6395 H   0  0  0  0  0  0  0  0  0  0  0  0
    7.8037  -11.8766    1.9991 H   0  0  0  0  0  0  0  0  0  0  0  0
    6.1573  -12.4051    1.9829 H   0  0  0  0  0  0  0  0  0  0  0  0
    6.6130   -9.9963    1.8769 H   0  0  0  0  0  0  0  0  0  0  0  0
    4.9399  -11.2544    4.8814 H   0  0  0  0  0  0  0  0  0  0  0  0
    5.0572   -7.6552    5.4616 H   0  0  0  0  0  0  0  0  0  0  0  0
    4.7815   -8.8798    6.6292 H   0  0  0  0  0  0  0  0  0  0  0  0
    7.1131   -8.4327    5.7270 H   0  0  0  0  0  0  0  0  0  0  0  0
    7.3058   -8.5510    3.4198 H   0  0  0  0  0  0  0  0  0  0  0  0
    8.9859  -10.6650    3.4521 H   0  0  0  0  0  0  0  0  0  0  0  0
    9.3158   -8.5133    5.5823 H   0  0  0  0  0  0  0  0  0  0  0  0
    9.7718   -8.3557    3.8878 H   0  0  0  0  0  0  0  0  0  0  0  0
   10.5458   -9.5495    4.9054 H   0  0  0  0  0  0  0  0  0  0  0  0
    2.4459   -9.8473    6.1819 H   0  0  0  0  0  0  0  0  0  0  0  0
    2.3056   -8.2405    5.5168 H   0  0  0  0  0  0  0  0  0  0  0  0
    0.3326  -11.5531    3.6647 H   0  0  0  0  0  0  0  0  0  0  0  0
    1.0351  -11.6667    5.2598 H   0  0  0  0  0  0  0  0  0  0  0  0
    2.0576  -11.7846    3.8450 H   0  0  0  0  0  0  0  0  0  0  0  0
   -0.1363   -9.5892    5.9185 H   0  0  0  0  0  0  0  0  0  0  0  0
   -1.7203   -8.0517    4.8474 H   0  0  0  0  0  0  0  0  0  0  0  0
    0.7263   -7.9879    1.2659 H   0  0  0  0  0  0  0  0  0  0  0  0
    2.6501  -10.7394    1.9519 H   0  0  0  0  0  0  0  0  0  0  0  0
    2.5215   -9.3436    0.9469 H   0  0  0  0  0  0  0  0  0  0  0  0
    5.0167   -8.8894    0.4779 H   0  0  0  0  0  0  0  0  0  0  0  0
    5.7008   -7.8690    1.7452 H   0  0  0  0  0  0  0  0  0  0  0  0
    4.1319   -7.5012    1.0815 H   0  0  0  0  0  0  0  0  0  0  0  0
  1  2  2  0
  1 29  1  0
  1 30  1  0
  2 12  1  0
  2  3  1  0
  3 14  1  0
  3  4  1  0
  3 31  1  1
  4  5  2  0
  4 32  1  0
  5  6  1  0
  5 33  1  0
  6  7  1  0
  6 34  1  0
  6 35  1  0
  7 13  1  0
  7  8  1  0
  7 36  1  6
  8 26  1  0
  8  9  2  0
  9 10  1  0
  9 37  1  0
 10 28  1  0
 10 11  1  1
 10 16  1  0
 11 12  1  0
 11 38  1  0
 11 39  1  0
 12 13  1  0
 12 40  1  1
 13 14  1  0
 13 41  1  6
 14 15  1  0
 14 42  1  6
 15 43  1  0
 15 44  1  0
 15 45  1  0
 16 17  1  0
 16 46  1  0
 16 47  1  0
 17 24  1  0
 17 18  1  6
 17 19  1  0
 18 48  1  0
 18 49  1  0
 18 50  1  0
 19 20  2  0
 19 51  1  0
 20 21  1  0
 20 52  1  0
 21 22  2  0
 21 23  1  0
 23 24  2  0
 23 53  1  0
 24 25  1  0
 25 26  1  0
 25 54  1  0
 25 55  1  0
 26 27  1  6
 26 28  1  0
 27 56  1  0
 27 57  1  0
 27 58  1  0
M  END
>  <i_m_ct_stereo_status>  (33) 
1

>  <s_m_source_file>  (33) 
/var/tmp/pbs.5076255.sched01/tmpgn4o3w3f/0whq8s7pj.sdf

>  <i_m_source_file_index>  (33) 
12

>  <i_lp_mmshare_version>  (33) 
48012

>  <i_f3d_flags>  (33) 
0

>  <s_epik_input>  (33) 
W0NIMl0xW0NIXT1bQ0hdW0NAQEhdKFtDQEBIXTJbQ0gzXSlDKD1bQ0gyXSlbQ0BIXShbQ0gyXTMpW0NAQEhdMltDQEBIXTFDKD1bQ0hdW0NAXTM0NSlbQ0BAXShPNSkoW0NIM10pW0NIMl1DNltDQF0oW0NIMl00KShbQ0gzXSlbQ0hdPVtDSF1DKD1PKVtDSF09Ng==

>  <s_epik_cmdline>  (33) 
J2VwaWtfcHl0aG9uJywgJy1waHQnLCAnMi4wJywgJy1waCcsICc3LjAnLCAnLXRuJywgJzgnLCAnLW1hJywgJzIwMCcsICctaW1hZScsICc8aW5maWxlLm1hZT4nLCAnLW9tYWUnLCAnPG91dGZpbGUubWFlPic=

>  <r_lp_tautomer_probability>  (33) 
1

>  <r_epik_Ionization_Penalty>  (33) 
3.17187e-13

>  <r_epik_Ionization_Penalty_Charging>  (33) 
0

>  <r_epik_Ionization_Penalty_Neutral>  (33) 
3.17187e-13

>  <r_epik_State_Penalty>  (33) 
-0

>  <r_epik_Charging_Adjusted_Penalty>  (33) 
0

>  <i_epik_Tot_Q>  (33) 
0

>  <i_epik_Tot_abs_Q>  (33) 
0

>  <s_lp_Force_Field>  (33) 
OPLS3e

>  <r_lp_Energy>  (33) 
89.8466

>  <b_lp_Chiralities_Consistent>  (33) 
1

>  <s_lp_Variant>  (33) 
7:0-1

>  <s_i_glide_gridfile>  (33) 
pfpi4k_grid

>  <i_i_glide_lignum>  (33) 
12

>  <i_i_glide_rotatable_bonds>  (33) 
0

>  <r_i_docking_score>  (33) 
-3.06782

>  <r_i_glide_ligand_efficiency>  (33) 
-0.109565

>  <r_i_glide_ligand_efficiency_sa>  (33) 
-0.332704

>  <r_i_glide_ligand_efficiency_ln>  (33) 
-0.708142

>  <r_i_glide_gscore>  (33) 
-3.06782

>  <r_i_glide_lipo>  (33) 
-0.221292

>  <r_i_glide_hbond>  (33) 
-0.16

>  <r_i_glide_metal>  (33) 
-0

>  <r_i_glide_rewards>  (33) 
-0.855578

>  <r_i_glide_evdw>  (33) 
-26.6612

>  <r_i_glide_ecoul>  (33) 
-2.92176

>  <r_i_glide_erotb>  (33) 
0

>  <r_i_glide_esite>  (33) 
-0.0596261

>  <r_i_glide_emodel>  (33) 
-35.5739

>  <r_i_glide_energy>  (33) 
-29.5829

>  <r_i_glide_einternal>  (33) 
0

>  <r_i_glide_intrahb_reward>  (33) 
-0

>  <i_i_glide_confnum>  (33) 
1

>  <i_i_glide_posenum>  (33) 
2

>  <r_i_glide_eff_state_penalty>  (33) 
0

>  <ligand_id>  (33) 
7

>  <original_smiles>  (33) 
C=C1C2C=CCC3C4=CC5(CC1C3C2C)CC1(C)C=CC(=O)C=C1CC4(C)O5

>  <smiles>  (33) 
[H]C([H])=C1C2([H])C([H])=C([H])C([H])([H])C3([H])C4=C([H])C5(OC4(C([H])([H])[H])C([H])([H])C4=C([H])C(=O)C([H])=C([H])C4(C([H])([H])[H])C5([H])[H])C([H])([H])C1([H])C3([H])C2([H])C([H])([H])[H]

$$$$
8:0:0
     RDKit          3D

 32 34  0  0  1  0  0  0  0  0999 V2000
    8.1103   -5.0904    0.8023 C   0  0  0  0  0  0  0  0  0  0  0  0
    6.6752   -4.8084    0.4787 C   0  0  0  0  0  0  0  0  0  0  0  0
    6.1154   -3.7717   -0.3217 C   0  0  0  0  0  0  0  0  0  0  0  0
    4.7679   -4.0131   -0.2999 C   0  0  0  0  0  0  0  0  0  0  0  0
    3.6550   -3.2561   -0.9482 C   0  0  0  0  0  0  0  0  0  0  0  0
    4.5809   -5.1623    0.4644 N   0  0  0  0  0  0  0  0  0  0  0  0
    3.3964   -5.8593    0.7960 C   0  0  0  0  0  0  0  0  0  0  0  0
    2.1678   -5.4348    0.4687 N   0  0  0  0  0  0  0  0  0  0  0  0
    1.1622   -6.2680    0.9343 N   0  0  0  0  0  0  0  0  0  0  0  0
    1.6637   -7.3144    1.5935 C   0  0  0  0  0  0  0  0  0  0  0  0
    0.8938   -8.3021    2.1634 N   0  0  0  0  0  0  0  0  0  0  0  0
   -0.5548   -8.3002    2.2690 C   0  0  0  0  0  0  0  0  0  0  0  0
   -0.9404   -9.4577    3.1665 C   0  0  0  0  0  0  0  0  0  0  0  0
    0.1895  -10.4529    2.9550 C   0  0  0  0  0  0  0  0  0  0  0  0
    1.3896   -9.5585    2.7037 C   0  0  0  0  0  0  0  0  0  0  0  0
    3.4148   -7.3789    1.6947 S   0  0  0  0  0  0  0  0  0  0  0  0
    5.7573   -5.6295    0.9316 N   0  0  0  0  0  0  0  0  0  0  0  0
    8.7668   -4.3543    0.3392 H   0  0  0  0  0  0  0  0  0  0  0  0
    8.4047   -6.0787    0.4467 H   0  0  0  0  0  0  0  0  0  0  0  0
    8.2745   -5.0698    1.8776 H   0  0  0  0  0  0  0  0  0  0  0  0
    6.6160   -2.9720   -0.8505 H   0  0  0  0  0  0  0  0  0  0  0  0
    4.0088   -2.3282   -1.3923 H   0  0  0  0  0  0  0  0  0  0  0  0
    2.8904   -2.9925   -0.2203 H   0  0  0  0  0  0  0  0  0  0  0  0
    3.1893   -3.8540   -1.7301 H   0  0  0  0  0  0  0  0  0  0  0  0
   -0.8876   -7.3485    2.6874 H   0  0  0  0  0  0  0  0  0  0  0  0
   -0.9840   -8.4065    1.2721 H   0  0  0  0  0  0  0  0  0  0  0  0
   -0.9545   -9.1241    4.2042 H   0  0  0  0  0  0  0  0  0  0  0  0
   -1.9188   -9.8592    2.9084 H   0  0  0  0  0  0  0  0  0  0  0  0
    0.3448  -11.1140    3.8091 H   0  0  0  0  0  0  0  0  0  0  0  0
   -0.0028  -11.0576    2.0680 H   0  0  0  0  0  0  0  0  0  0  0  0
    2.0817  -10.0255    1.9953 H   0  0  0  0  0  0  0  0  0  0  0  0
    1.9299   -9.3441    3.6293 H   0  0  0  0  0  0  0  0  0  0  0  0
  1  2  1  0
  1 18  1  0
  1 19  1  0
  1 20  1  0
  2 17  2  0
  2  3  1  0
  3  4  2  0
  3 21  1  0
  4  5  1  0
  4  6  1  0
  5 22  1  0
  5 23  1  0
  5 24  1  0
  6  7  1  0
  6 17  1  0
  7 16  1  0
  7  8  2  0
  8  9  1  0
  9 10  2  0
 10 11  1  0
 10 16  1  0
 11 15  1  0
 11 12  1  0
 12 13  1  0
 12 25  1  0
 12 26  1  0
 13 14  1  0
 13 27  1  0
 13 28  1  0
 14 15  1  0
 14 29  1  0
 14 30  1  0
 15 31  1  0
 15 32  1  0
M  END
>  <i_m_ct_stereo_status>  (34) 
1

>  <s_m_source_file>  (34) 
/var/tmp/pbs.5076255.sched01/tmpgn4o3w3f/0whq8s7pj.sdf

>  <i_m_source_file_index>  (34) 
13

>  <i_lp_mmshare_version>  (34) 
48012

>  <i_f3d_flags>  (34) 
0

>  <s_epik_input>  (34) 
W0NIM11jMVtjSF1jKFtDSDNdKW4objEpLWMybm5jKHMyKU4zW0NIMl1bQ0gyXVtDSDJdW0NIMl0z

>  <s_epik_cmdline>  (34) 
J2VwaWtfcHl0aG9uJywgJy1waHQnLCAnMi4wJywgJy1waCcsICc3LjAnLCAnLXRuJywgJzgnLCAnLW1hJywgJzIwMCcsICctaW1hZScsICc8aW5maWxlLm1hZT4nLCAnLW9tYWUnLCAnPG91dGZpbGUubWFlPic=

>  <r_lp_tautomer_probability>  (34) 
1

>  <r_epik_Ionization_Penalty>  (34) 
4.6929e-06

>  <r_epik_Ionization_Penalty_Charging>  (34) 
0

>  <r_epik_Ionization_Penalty_Neutral>  (34) 
4.6929e-06

>  <r_epik_State_Penalty>  (34) 
-0

>  <r_epik_Charging_Adjusted_Penalty>  (34) 
0

>  <i_epik_Tot_Q>  (34) 
0

>  <i_epik_Tot_abs_Q>  (34) 
0

>  <s_lp_Force_Field>  (34) 
OPLS3e

>  <r_lp_Energy>  (34) 
11.7778

>  <b_lp_Chiralities_Consistent>  (34) 
1

>  <s_lp_Variant>  (34) 
8:0-1

>  <s_i_glide_gridfile>  (34) 
pfpi4k_grid

>  <i_i_glide_lignum>  (34) 
13

>  <i_i_glide_rotatable_bonds>  (34) 
2

>  <r_i_docking_score>  (34) 
-3.48718

>  <r_i_glide_ligand_efficiency>  (34) 
-0.205128

>  <r_i_glide_ligand_efficiency_sa>  (34) 
-0.527442

>  <r_i_glide_ligand_efficiency_ln>  (34) 
-0.909727

>  <r_i_glide_gscore>  (34) 
-3.48718

>  <r_i_glide_lipo>  (34) 
-0.542521

>  <r_i_glide_hbond>  (34) 
0

>  <r_i_glide_metal>  (34) 
-0

>  <r_i_glide_rewards>  (34) 
-1.79336

>  <r_i_glide_evdw>  (34) 
-23.7092

>  <r_i_glide_ecoul>  (34) 
-2.25954

>  <r_i_glide_erotb>  (34) 
0.562557

>  <r_i_glide_esite>  (34) 
-0.189461

>  <r_i_glide_emodel>  (34) 
-32.0034

>  <r_i_glide_energy>  (34) 
-25.9688

>  <r_i_glide_einternal>  (34) 
0.251332

>  <r_i_glide_intrahb_reward>  (34) 
-0

>  <i_i_glide_confnum>  (34) 
4

>  <i_i_glide_posenum>  (34) 
18

>  <r_i_glide_eff_state_penalty>  (34) 
0

>  <ligand_id>  (34) 
8

>  <original_smiles>  (34) 
Cc1cc(C)n(-c2nnc(N3CCCC3)s2)n1

>  <smiles>  (34) 
[H]c1c(C([H])([H])[H])nn(-c2nnc(N3C([H])([H])C([H])([H])C([H])([H])C3([H])[H])s2)c1C([H])([H])[H]

$$$$
8:0:1
     RDKit          3D

 32 34  0  0  1  0  0  0  0  0999 V2000
   -2.1317   -8.1030    3.7079 C   0  0  0  0  0  0  0  0  0  0  0  0
   -0.7690   -8.2392    3.1280 C   0  0  0  0  0  0  0  0  0  0  0  0
    0.0823   -9.3801    3.0962 C   0  0  0  0  0  0  0  0  0  0  0  0
    1.2095   -8.9366    2.4669 C   0  0  0  0  0  0  0  0  0  0  0  0
    2.4490   -9.6823    2.0901 C   0  0  0  0  0  0  0  0  0  0  0  0
    0.9865   -7.6056    2.1451 N   0  0  0  0  0  0  0  0  0  0  0  0
    1.8436   -6.7006    1.4963 C   0  0  0  0  0  0  0  0  0  0  0  0
    1.4124   -5.8633    0.5401 N   0  0  0  0  0  0  0  0  0  0  0  0
    2.4156   -5.0238    0.0855 N   0  0  0  0  0  0  0  0  0  0  0  0
    3.5881   -5.2920    0.6664 C   0  0  0  0  0  0  0  0  0  0  0  0
    4.7862   -4.6619    0.3616 N   0  0  0  0  0  0  0  0  0  0  0  0
    4.9450   -3.5021   -0.4986 C   0  0  0  0  0  0  0  0  0  0  0  0
    6.4376   -3.3023   -0.7512 C   0  0  0  0  0  0  0  0  0  0  0  0
    7.0788   -3.9201    0.4765 C   0  0  0  0  0  0  0  0  0  0  0  0
    6.1112   -5.0367    0.8465 C   0  0  0  0  0  0  0  0  0  0  0  0
    3.5445   -6.5292    1.9056 S   0  0  0  0  0  0  0  0  0  0  0  0
   -0.2338   -7.1847    2.5492 N   0  0  0  0  0  0  0  0  0  0  0  0
   -2.4635   -9.0510    4.1246 H   0  0  0  0  0  0  0  0  0  0  0  0
   -2.8485   -7.8005    2.9493 H   0  0  0  0  0  0  0  0  0  0  0  0
   -2.1463   -7.3621    4.5060 H   0  0  0  0  0  0  0  0  0  0  0  0
   -0.0986  -10.3797    3.4670 H   0  0  0  0  0  0  0  0  0  0  0  0
    2.4485  -10.6856    2.5103 H   0  0  0  0  0  0  0  0  0  0  0  0
    3.3396   -9.1958    2.4712 H   0  0  0  0  0  0  0  0  0  0  0  0
    2.5284   -9.7537    1.0057 H   0  0  0  0  0  0  0  0  0  0  0  0
    4.3983   -3.6539   -1.4314 H   0  0  0  0  0  0  0  0  0  0  0  0
    4.5137   -2.6469    0.0272 H   0  0  0  0  0  0  0  0  0  0  0  0
    6.7208   -3.8485   -1.6522 H   0  0  0  0  0  0  0  0  0  0  0  0
    6.6892   -2.2507   -0.8754 H   0  0  0  0  0  0  0  0  0  0  0  0
    8.0831   -4.3013    0.2996 H   0  0  0  0  0  0  0  0  0  0  0  0
    7.1185   -3.1982    1.2926 H   0  0  0  0  0  0  0  0  0  0  0  0
    6.0938   -5.1863    1.9257 H   0  0  0  0  0  0  0  0  0  0  0  0
    6.3944   -5.9784    0.3739 H   0  0  0  0  0  0  0  0  0  0  0  0
  1  2  1  0
  1 18  1  0
  1 19  1  0
  1 20  1  0
  2 17  2  0
  2  3  1  0
  3  4  2  0
  3 21  1  0
  4  5  1  0
  4  6  1  0
  5 22  1  0
  5 23  1  0
  5 24  1  0
  6  7  1  0
  6 17  1  0
  7 16  1  0
  7  8  2  0
  8  9  1  0
  9 10  2  0
 10 11  1  0
 10 16  1  0
 11 15  1  0
 11 12  1  0
 12 13  1  0
 12 25  1  0
 12 26  1  0
 13 14  1  0
 13 27  1  0
 13 28  1  0
 14 15  1  0
 14 29  1  0
 14 30  1  0
 15 31  1  0
 15 32  1  0
M  END
>  <i_m_ct_stereo_status>  (35) 
1

>  <s_m_source_file>  (35) 
/var/tmp/pbs.5076255.sched01/tmpgn4o3w3f/0whq8s7pj.sdf

>  <i_m_source_file_index>  (35) 
13

>  <i_lp_mmshare_version>  (35) 
48012

>  <i_f3d_flags>  (35) 
0

>  <s_epik_input>  (35) 
W0NIM11jMVtjSF1jKFtDSDNdKW4objEpLWMybm5jKHMyKU4zW0NIMl1bQ0gyXVtDSDJdW0NIMl0z

>  <s_epik_cmdline>  (35) 
J2VwaWtfcHl0aG9uJywgJy1waHQnLCAnMi4wJywgJy1waCcsICc3LjAnLCAnLXRuJywgJzgnLCAnLW1hJywgJzIwMCcsICctaW1hZScsICc8aW5maWxlLm1hZT4nLCAnLW9tYWUnLCAnPG91dGZpbGUubWFlPic=

>  <r_lp_tautomer_probability>  (35) 
1

>  <r_epik_Ionization_Penalty>  (35) 
4.6929e-06

>  <r_epik_Ionization_Penalty_Charging>  (35) 
0

>  <r_epik_Ionization_Penalty_Neutral>  (35) 
4.6929e-06

>  <r_epik_State_Penalty>  (35) 
-0

>  <r_epik_Charging_Adjusted_Penalty>  (35) 
0

>  <i_epik_Tot_Q>  (35) 
0

>  <i_epik_Tot_abs_Q>  (35) 
0

>  <s_lp_Force_Field>  (35) 
OPLS3e

>  <r_lp_Energy>  (35) 
11.7778

>  <b_lp_Chiralities_Consistent>  (35) 
1

>  <s_lp_Variant>  (35) 
8:0-1

>  <s_i_glide_gridfile>  (35) 
pfpi4k_grid

>  <i_i_glide_lignum>  (35) 
13

>  <i_i_glide_rotatable_bonds>  (35) 
2

>  <r_i_docking_score>  (35) 
-3.41365

>  <r_i_glide_ligand_efficiency>  (35) 
-0.200803

>  <r_i_glide_ligand_efficiency_sa>  (35) 
-0.516321

>  <r_i_glide_ligand_efficiency_ln>  (35) 
-0.890545

>  <r_i_glide_gscore>  (35) 
-3.41365

>  <r_i_glide_lipo>  (35) 
-0.438126

>  <r_i_glide_hbond>  (35) 
-0.031911

>  <r_i_glide_metal>  (35) 
-0

>  <r_i_glide_rewards>  (35) 
-1.78263

>  <r_i_glide_evdw>  (35) 
-22.6716

>  <r_i_glide_ecoul>  (35) 
-2.36509

>  <r_i_glide_erotb>  (35) 
0.562557

>  <r_i_glide_esite>  (35) 
-0.235191

>  <r_i_glide_emodel>  (35) 
-30.5226

>  <r_i_glide_energy>  (35) 
-25.0367

>  <r_i_glide_einternal>  (35) 
0.923967

>  <r_i_glide_intrahb_reward>  (35) 
-0

>  <i_i_glide_confnum>  (35) 
4

>  <i_i_glide_posenum>  (35) 
38

>  <r_i_glide_eff_state_penalty>  (35) 
0

>  <ligand_id>  (35) 
8

>  <original_smiles>  (35) 
Cc1cc(C)n(-c2nnc(N3CCCC3)s2)n1

>  <smiles>  (35) 
[H]c1c(C([H])([H])[H])nn(-c2nnc(N3C([H])([H])C([H])([H])C([H])([H])C3([H])[H])s2)c1C([H])([H])[H]

$$$$
8:0:2
     RDKit          3D

 32 34  0  0  1  0  0  0  0  0999 V2000
    0.2229   -9.8362    4.0798 C   0  0  0  0  0  0  0  0  0  0  0  0
    1.3255   -9.3731    3.1844 C   0  0  0  0  0  0  0  0  0  0  0  0
    2.4817  -10.0856    2.7389 C   0  0  0  0  0  0  0  0  0  0  0  0
    3.1512   -9.1953    1.9544 C   0  0  0  0  0  0  0  0  0  0  0  0
    4.4250   -9.3833    1.1899 C   0  0  0  0  0  0  0  0  0  0  0  0
    2.4039   -8.0235    1.9520 N   0  0  0  0  0  0  0  0  0  0  0  0
    2.6652   -6.7968    1.3051 C   0  0  0  0  0  0  0  0  0  0  0  0
    1.6982   -6.0169    0.7915 N   0  0  0  0  0  0  0  0  0  0  0  0
    2.2168   -4.9000    0.1432 N   0  0  0  0  0  0  0  0  0  0  0  0
    3.5441   -4.8356    0.2402 C   0  0  0  0  0  0  0  0  0  0  0  0
    4.3072   -3.8173   -0.2975 N   0  0  0  0  0  0  0  0  0  0  0  0
    3.8108   -2.7058   -1.0894 C   0  0  0  0  0  0  0  0  0  0  0  0
    5.0230   -2.0079   -1.6917 C   0  0  0  0  0  0  0  0  0  0  0  0
    6.1342   -2.3198   -0.6978 C   0  0  0  0  0  0  0  0  0  0  0  0
    5.7484   -3.6909   -0.1756 C   0  0  0  0  0  0  0  0  0  0  0  0
    4.2887   -6.1466    1.1210 S   0  0  0  0  0  0  0  0  0  0  0  0
    1.2894   -8.1509    2.7025 N   0  0  0  0  0  0  0  0  0  0  0  0
    0.3743  -10.8705    4.3957 H   0  0  0  0  0  0  0  0  0  0  0  0
   -0.7412   -9.7795    3.5747 H   0  0  0  0  0  0  0  0  0  0  0  0
    0.1618   -9.2217    4.9786 H   0  0  0  0  0  0  0  0  0  0  0  0
    2.7711  -11.1024    2.9546 H   0  0  0  0  0  0  0  0  0  0  0  0
    4.8893  -10.3370    1.4287 H   0  0  0  0  0  0  0  0  0  0  0  0
    5.1702   -8.6400    1.4542 H   0  0  0  0  0  0  0  0  0  0  0  0
    4.2242   -9.3411    0.1199 H   0  0  0  0  0  0  0  0  0  0  0  0
    3.1346   -3.0771   -1.8686 H   0  0  0  0  0  0  0  0  0  0  0  0
    3.2450   -2.0411   -0.4288 H   0  0  0  0  0  0  0  0  0  0  0  0
    5.2553   -2.4552   -2.6606 H   0  0  0  0  0  0  0  0  0  0  0  0
    4.8527   -0.9381   -1.8254 H   0  0  0  0  0  0  0  0  0  0  0  0
    7.1291   -2.3234   -1.1425 H   0  0  0  0  0  0  0  0  0  0  0  0
    6.1156   -1.6046    0.1260 H   0  0  0  0  0  0  0  0  0  0  0  0
    6.0495   -3.8139    0.8700 H   0  0  0  0  0  0  0  0  0  0  0  0
    6.2088   -4.4928   -0.7555 H   0  0  0  0  0  0  0  0  0  0  0  0
  1  2  1  0
  1 18  1  0
  1 19  1  0
  1 20  1  0
  2 17  2  0
  2  3  1  0
  3  4  2  0
  3 21  1  0
  4  5  1  0
  4  6  1  0
  5 22  1  0
  5 23  1  0
  5 24  1  0
  6  7  1  0
  6 17  1  0
  7 16  1  0
  7  8  2  0
  8  9  1  0
  9 10  2  0
 10 11  1  0
 10 16  1  0
 11 15  1  0
 11 12  1  0
 12 13  1  0
 12 25  1  0
 12 26  1  0
 13 14  1  0
 13 27  1  0
 13 28  1  0
 14 15  1  0
 14 29  1  0
 14 30  1  0
 15 31  1  0
 15 32  1  0
M  END
>  <i_m_ct_stereo_status>  (36) 
1

>  <s_m_source_file>  (36) 
/var/tmp/pbs.5076255.sched01/tmpgn4o3w3f/0whq8s7pj.sdf

>  <i_m_source_file_index>  (36) 
13

>  <i_lp_mmshare_version>  (36) 
48012

>  <i_f3d_flags>  (36) 
0

>  <s_epik_input>  (36) 
W0NIM11jMVtjSF1jKFtDSDNdKW4objEpLWMybm5jKHMyKU4zW0NIMl1bQ0gyXVtDSDJdW0NIMl0z

>  <s_epik_cmdline>  (36) 
J2VwaWtfcHl0aG9uJywgJy1waHQnLCAnMi4wJywgJy1waCcsICc3LjAnLCAnLXRuJywgJzgnLCAnLW1hJywgJzIwMCcsICctaW1hZScsICc8aW5maWxlLm1hZT4nLCAnLW9tYWUnLCAnPG91dGZpbGUubWFlPic=

>  <r_lp_tautomer_probability>  (36) 
1

>  <r_epik_Ionization_Penalty>  (36) 
4.6929e-06

>  <r_epik_Ionization_Penalty_Charging>  (36) 
0

>  <r_epik_Ionization_Penalty_Neutral>  (36) 
4.6929e-06

>  <r_epik_State_Penalty>  (36) 
-0

>  <r_epik_Charging_Adjusted_Penalty>  (36) 
0

>  <i_epik_Tot_Q>  (36) 
0

>  <i_epik_Tot_abs_Q>  (36) 
0

>  <s_lp_Force_Field>  (36) 
OPLS3e

>  <r_lp_Energy>  (36) 
11.7778

>  <b_lp_Chiralities_Consistent>  (36) 
1

>  <s_lp_Variant>  (36) 
8:0-1

>  <s_i_glide_gridfile>  (36) 
pfpi4k_grid

>  <i_i_glide_lignum>  (36) 
13

>  <i_i_glide_rotatable_bonds>  (36) 
2

>  <r_i_docking_score>  (36) 
-2.72509

>  <r_i_glide_ligand_efficiency>  (36) 
-0.160299

>  <r_i_glide_ligand_efficiency_sa>  (36) 
-0.412175

>  <r_i_glide_ligand_efficiency_ln>  (36) 
-0.710915

>  <r_i_glide_gscore>  (36) 
-2.72509

>  <r_i_glide_lipo>  (36) 
-0.141437

>  <r_i_glide_hbond>  (36) 
0

>  <r_i_glide_metal>  (36) 
-0

>  <r_i_glide_rewards>  (36) 
-1.71599

>  <r_i_glide_evdw>  (36) 
-21.3277

>  <r_i_glide_ecoul>  (36) 
-1.41875

>  <r_i_glide_erotb>  (36) 
0.562557

>  <r_i_glide_esite>  (36) 
-0.151019

>  <r_i_glide_emodel>  (36) 
-27.0406

>  <r_i_glide_energy>  (36) 
-22.7465

>  <r_i_glide_einternal>  (36) 
0.775396

>  <r_i_glide_intrahb_reward>  (36) 
-0

>  <i_i_glide_confnum>  (36) 
3

>  <i_i_glide_posenum>  (36) 
35

>  <r_i_glide_eff_state_penalty>  (36) 
0

>  <ligand_id>  (36) 
8

>  <original_smiles>  (36) 
Cc1cc(C)n(-c2nnc(N3CCCC3)s2)n1

>  <smiles>  (36) 
[H]c1c(C([H])([H])[H])nn(-c2nnc(N3C([H])([H])C([H])([H])C([H])([H])C3([H])[H])s2)c1C([H])([H])[H]

$$$$
11:0:0
     RDKit          3D

 38 41  0  0  1  0  0  0  0  0999 V2000
    7.3229   -5.9504    0.8879 C   0  0  0  0  0  0  0  0  0  0  0  0
    6.4654   -4.6728    0.9123 C   0  0  0  0  0  0  0  0  0  0  0  0
    5.6660   -4.6084    2.2321 C   0  0  0  0  0  0  0  0  0  0  0  0
    7.2725   -3.4172    0.6446 C   0  0  0  0  0  0  0  0  0  0  0  0
    6.2918   -2.5179    0.2022 O   0  0  0  0  0  0  0  0  0  0  0  0
    5.3667   -3.2764   -0.5075 C   0  0  1  0  0  0  0  0  0  0  0  0
    5.5867   -4.6237   -0.1882 O   0  0  0  0  0  0  0  0  0  0  0  0
    3.9288   -2.8647   -0.0874 C   0  0  1  0  0  0  0  0  0  0  0  0
    3.7424   -1.3572   -0.3909 C   0  0  0  0  0  0  0  0  0  0  0  0
    3.8957   -1.1191   -1.9073 C   0  0  2  0  0  0  0  0  0  0  0  0
    2.8767   -1.9772   -2.6971 C   0  0  0  0  0  0  0  0  0  0  0  0
    3.1121   -3.4396   -2.4063 C   0  0  2  0  0  0  0  0  0  0  0  0
    2.9204   -3.7064   -0.9019 C   0  0  0  0  0  0  0  0  0  0  0  0
    4.5474   -3.8453   -2.8231 C   0  0  0  0  0  0  0  0  0  0  0  0
    5.5692   -3.0097   -2.0338 C   0  0  1  0  0  0  0  0  0  0  0  0
    5.2891   -1.5360   -2.3102 C   0  0  0  0  0  0  0  0  0  0  0  0
    7.9886   -5.9982    1.7468 H   0  0  0  0  0  0  0  0  0  0  0  0
    7.9422   -6.0127    0.0038 H   0  0  0  0  0  0  0  0  0  0  0  0
    6.6872   -6.8323    0.9049 H   0  0  0  0  0  0  0  0  0  0  0  0
    6.3024   -4.8193    3.0899 H   0  0  0  0  0  0  0  0  0  0  0  0
    4.8755   -5.3543    2.2400 H   0  0  0  0  0  0  0  0  0  0  0  0
    5.2025   -3.6390    2.4059 H   0  0  0  0  0  0  0  0  0  0  0  0
    7.7732   -3.0539    1.5460 H   0  0  0  0  0  0  0  0  0  0  0  0
    8.0199   -3.5580   -0.1361 H   0  0  0  0  0  0  0  0  0  0  0  0
    3.7597   -3.0411    0.9735 H   0  0  0  0  0  0  0  0  0  0  0  0
    2.7591   -1.0490   -0.0389 H   0  0  0  0  0  0  0  0  0  0  0  0
    4.4443   -0.7594    0.1762 H   0  0  0  0  0  0  0  0  0  0  0  0
    3.8290   -0.0744   -2.2082 H   0  0  0  0  0  0  0  0  0  0  0  0
    1.8586   -1.7596   -2.4159 H   0  0  0  0  0  0  0  0  0  0  0  0
    2.9615   -1.7681   -3.7730 H   0  0  0  0  0  0  0  0  0  0  0  0
    2.3563   -3.9840   -2.9826 H   0  0  0  0  0  0  0  0  0  0  0  0
    3.0545   -4.7641   -0.6773 H   0  0  0  0  0  0  0  0  0  0  0  0
    1.9031   -3.4638   -0.6072 H   0  0  0  0  0  0  0  0  0  0  0  0
    4.7373   -4.9072   -2.6499 H   0  0  0  0  0  0  0  0  0  0  0  0
    4.6634   -3.7053   -3.8994 H   0  0  0  0  0  0  0  0  0  0  0  0
    6.5867   -3.2903   -2.3258 H   0  0  0  0  0  0  0  0  0  0  0  0
    5.3647   -1.3804   -3.3809 H   0  0  0  0  0  0  0  0  0  0  0  0
    6.0099   -0.9046   -1.7962 H   0  0  0  0  0  0  0  0  0  0  0  0
  1  2  1  0
  1 17  1  0
  1 18  1  0
  1 19  1  0
  2  7  1  0
  2  3  1  0
  2  4  1  0
  3 20  1  0
  3 21  1  0
  3 22  1  0
  4  5  1  0
  4 23  1  0
  4 24  1  0
  6  5  1  1
  6 15  1  0
  6  7  1  0
  6  8  1  0
  8 13  1  0
  8  9  1  0
  8 25  1  1
  9 10  1  0
  9 26  1  0
  9 27  1  0
 10 16  1  0
 10 11  1  0
 10 28  1  1
 11 12  1  0
 11 29  1  0
 11 30  1  0
 12 13  1  0
 12 14  1  0
 12 31  1  6
 13 32  1  0
 13 33  1  0
 14 15  1  0
 14 34  1  0
 14 35  1  0
 15 16  1  0
 15 36  1  6
 16 37  1  0
 16 38  1  0
M  END
>  <i_m_ct_stereo_status>  (37) 
1

>  <s_m_source_file>  (37) 
/var/tmp/pbs.5076255.sched01/tmpgn4o3w3f/0whq8s7pj.sdf

>  <i_m_source_file_index>  (37) 
18

>  <i_lp_mmshare_version>  (37) 
48012

>  <i_f3d_flags>  (37) 
0

>  <s_epik_input>  (37) 
W0NIM11DKE8xKShbQ0gzXSlbQ0gyXU9bQ0BdMTJbQ0BIXTNbQ0gyXVtDQEBIXTRbQ0gyXVtDQEhdKFtDSDJdMylbQ0gyXVtDQEhdMltDSDJdNA==

>  <s_epik_cmdline>  (37) 
J2VwaWtfcHl0aG9uJywgJy1waHQnLCAnMi4wJywgJy1waCcsICc3LjAnLCAnLXRuJywgJzgnLCAnLW1hJywgJzIwMCcsICctaW1hZScsICc8aW5maWxlLm1hZT4nLCAnLW9tYWUnLCAnPG91dGZpbGUubWFlPic=

>  <r_lp_tautomer_probability>  (37) 
1

>  <r_epik_Ionization_Penalty>  (37) 
5.28206e-13

>  <r_epik_Ionization_Penalty_Charging>  (37) 
0

>  <r_epik_Ionization_Penalty_Neutral>  (37) 
5.28206e-13

>  <r_epik_State_Penalty>  (37) 
-0

>  <r_epik_Charging_Adjusted_Penalty>  (37) 
0

>  <i_epik_Tot_Q>  (37) 
0

>  <i_epik_Tot_abs_Q>  (37) 
0

>  <s_lp_Force_Field>  (37) 
OPLS3e

>  <r_lp_Energy>  (37) 
5.90597

>  <b_lp_Chiralities_Consistent>  (37) 
1

>  <s_lp_Variant>  (37) 
11:0-1

>  <s_i_glide_gridfile>  (37) 
pfpi4k_grid

>  <i_i_glide_lignum>  (37) 
18

>  <i_i_glide_rotatable_bonds>  (37) 
0

>  <r_i_docking_score>  (37) 
-2.89728

>  <r_i_glide_ligand_efficiency>  (37) 
-0.18108

>  <r_i_glide_ligand_efficiency_sa>  (37) 
-0.456292

>  <r_i_glide_ligand_efficiency_ln>  (37) 
-0.767981

>  <r_i_glide_gscore>  (37) 
-2.89728

>  <r_i_glide_lipo>  (37) 
-0.414491

>  <r_i_glide_hbond>  (37) 
0

>  <r_i_glide_metal>  (37) 
-0

>  <r_i_glide_rewards>  (37) 
-1.96265

>  <r_i_glide_evdw>  (37) 
-10.0953

>  <r_i_glide_ecoul>  (37) 
-0.102478

>  <r_i_glide_erotb>  (37) 
0

>  <r_i_glide_esite>  (37) 
0

>  <r_i_glide_emodel>  (37) 
-12.7304

>  <r_i_glide_energy>  (37) 
-10.1978

>  <r_i_glide_einternal>  (37) 
0

>  <r_i_glide_intrahb_reward>  (37) 
-0

>  <i_i_glide_confnum>  (37) 
2

>  <i_i_glide_posenum>  (37) 
12

>  <r_i_glide_eff_state_penalty>  (37) 
0

>  <ligand_id>  (37) 
11

>  <original_smiles>  (37) 
CC1(C)COC2(O1)C1CC3CC(C1)CC2C3

>  <smiles>  (37) 
[H]C([H])([H])C1(C([H])([H])[H])OC2(OC1([H])[H])C1([H])C([H])([H])C3([H])C([H])([H])C([H])(C1([H])[H])C([H])([H])C2([H])C3([H])[H]

$$$$
11:0:1
     RDKit          3D

 38 41  0  0  1  0  0  0  0  0999 V2000
    3.4069   -1.2558   -2.6317 C   0  0  0  0  0  0  0  0  0  0  0  0
    3.7320   -2.7566   -2.7073 C   0  0  0  0  0  0  0  0  0  0  0  0
    2.9550   -3.2354   -3.9244 C   0  0  0  0  0  0  0  0  0  0  0  0
    5.2288   -3.0673   -2.7670 C   0  0  0  0  0  0  0  0  0  0  0  0
    5.5907   -3.4331   -1.4397 O   0  0  0  0  0  0  0  0  0  0  0  0
    4.4396   -3.3176   -0.6719 C   0  0  1  0  0  0  0  0  0  0  0  0
    3.3461   -3.4378   -1.5256 O   0  0  0  0  0  0  0  0  0  0  0  0
    4.3772   -4.3911    0.4444 C   0  0  1  0  0  0  0  0  0  0  0  0
    5.6000   -4.1971    1.3669 C   0  0  0  0  0  0  0  0  0  0  0  0
    5.5648   -2.8053    2.0262 C   0  0  2  0  0  0  0  0  0  0  0  0
    4.2627   -2.6271    2.8317 C   0  0  0  0  0  0  0  0  0  0  0  0
    3.0400   -2.7881    1.9029 C   0  0  2  0  0  0  0  0  0  0  0  0
    3.0698   -4.1889    1.2516 C   0  0  0  0  0  0  0  0  0  0  0  0
    3.0832   -1.7417    0.7845 C   0  0  0  0  0  0  0  0  0  0  0  0
    4.4265   -1.9582    0.0801 C   0  0  1  0  0  0  0  0  0  0  0  0
    5.6476   -1.7509    0.9411 C   0  0  0  0  0  0  0  0  0  0  0  0
    3.7779   -0.6933   -3.4682 H   0  0  0  0  0  0  0  0  0  0  0  0
    3.9050   -0.6229   -1.9890 H   0  0  0  0  0  0  0  0  0  0  0  0
    2.3779   -1.0553   -2.3427 H   0  0  0  0  0  0  0  0  0  0  0  0
    3.1603   -2.5754   -4.7663 H   0  0  0  0  0  0  0  0  0  0  0  0
    1.8827   -3.1999   -3.7424 H   0  0  0  0  0  0  0  0  0  0  0  0
    3.2266   -4.2409   -4.2150 H   0  0  0  0  0  0  0  0  0  0  0  0
    5.4259   -3.9033   -3.4355 H   0  0  0  0  0  0  0  0  0  0  0  0
    5.8076   -2.2174   -3.1181 H   0  0  0  0  0  0  0  0  0  0  0  0
    4.3942   -5.3703   -0.0169 H   0  0  0  0  0  0  0  0  0  0  0  0
    5.5880   -4.9589    2.1444 H   0  0  0  0  0  0  0  0  0  0  0  0
    6.5244   -4.3379    0.8082 H   0  0  0  0  0  0  0  0  0  0  0  0
    6.4272   -2.6811    2.6552 H   0  0  0  0  0  0  0  0  0  0  0  0
    4.2271   -3.3809    3.6164 H   0  0  0  0  0  0  0  0  0  0  0  0
    4.2410   -1.6613    3.3358 H   0  0  0  0  0  0  0  0  0  0  0  0
    2.1212   -2.6536    2.4617 H   0  0  0  0  0  0  0  0  0  0  0  0
    2.2020   -4.3322    0.6107 H   0  0  0  0  0  0  0  0  0  0  0  0
    3.0053   -4.9504    2.0290 H   0  0  0  0  0  0  0  0  0  0  0  0
    2.2488   -1.8715    0.0944 H   0  0  0  0  0  0  0  0  0  0  0  0
    3.0089   -0.7161    1.1418 H   0  0  0  0  0  0  0  0  0  0  0  0
    4.7047   -1.1551   -0.5000 H   0  0  0  0  0  0  0  0  0  0  0  0
    5.6284   -0.7291    1.3282 H   0  0  0  0  0  0  0  0  0  0  0  0
    6.5502   -1.8194    0.3292 H   0  0  0  0  0  0  0  0  0  0  0  0
  1  2  1  0
  1 17  1  0
  1 18  1  0
  1 19  1  0
  2  7  1  0
  2  3  1  0
  2  4  1  0
  3 20  1  0
  3 21  1  0
  3 22  1  0
  4  5  1  0
  4 23  1  0
  4 24  1  0
  6  5  1  6
  6 15  1  0
  6  7  1  0
  6  8  1  0
  8 13  1  0
  8  9  1  0
  8 25  1  6
  9 10  1  0
  9 26  1  0
  9 27  1  0
 10 16  1  0
 10 11  1  0
 10 28  1  1
 11 12  1  0
 11 29  1  0
 11 30  1  0
 12 13  1  0
 12 14  1  0
 12 31  1  1
 13 32  1  0
 13 33  1  0
 14 15  1  0
 14 34  1  0
 14 35  1  0
 15 16  1  0
 15 36  1  6
 16 37  1  0
 16 38  1  0
M  END
>  <i_m_ct_stereo_status>  (38) 
1

>  <s_m_source_file>  (38) 
/var/tmp/pbs.5076255.sched01/tmpgn4o3w3f/0whq8s7pj.sdf

>  <i_m_source_file_index>  (38) 
18

>  <i_lp_mmshare_version>  (38) 
48012

>  <i_f3d_flags>  (38) 
0

>  <s_epik_input>  (38) 
W0NIM11DKE8xKShbQ0gzXSlbQ0gyXU9bQ0BdMTJbQ0BIXTNbQ0gyXVtDQEBIXTRbQ0gyXVtDQEhdKFtDSDJdMylbQ0gyXVtDQEhdMltDSDJdNA==

>  <s_epik_cmdline>  (38) 
J2VwaWtfcHl0aG9uJywgJy1waHQnLCAnMi4wJywgJy1waCcsICc3LjAnLCAnLXRuJywgJzgnLCAnLW1hJywgJzIwMCcsICctaW1hZScsICc8aW5maWxlLm1hZT4nLCAnLW9tYWUnLCAnPG91dGZpbGUubWFlPic=

>  <r_lp_tautomer_probability>  (38) 
1

>  <r_epik_Ionization_Penalty>  (38) 
5.28206e-13

>  <r_epik_Ionization_Penalty_Charging>  (38) 
0

>  <r_epik_Ionization_Penalty_Neutral>  (38) 
5.28206e-13

>  <r_epik_State_Penalty>  (38) 
-0

>  <r_epik_Charging_Adjusted_Penalty>  (38) 
0

>  <i_epik_Tot_Q>  (38) 
0

>  <i_epik_Tot_abs_Q>  (38) 
0

>  <s_lp_Force_Field>  (38) 
OPLS3e

>  <r_lp_Energy>  (38) 
5.90597

>  <b_lp_Chiralities_Consistent>  (38) 
1

>  <s_lp_Variant>  (38) 
11:0-1

>  <s_i_glide_gridfile>  (38) 
pfpi4k_grid

>  <i_i_glide_lignum>  (38) 
18

>  <i_i_glide_rotatable_bonds>  (38) 
0

>  <r_i_docking_score>  (38) 
-2.11454

>  <r_i_glide_ligand_efficiency>  (38) 
-0.132158

>  <r_i_glide_ligand_efficiency_sa>  (38) 
-0.333019

>  <r_i_glide_ligand_efficiency_ln>  (38) 
-0.5605

>  <r_i_glide_gscore>  (38) 
-2.11454

>  <r_i_glide_lipo>  (38) 
-0.553033

>  <r_i_glide_hbond>  (38) 
0

>  <r_i_glide_metal>  (38) 
-0

>  <r_i_glide_rewards>  (38) 
-1.95154

>  <r_i_glide_evdw>  (38) 
-18.7396

>  <r_i_glide_ecoul>  (38) 
1.00619

>  <r_i_glide_erotb>  (38) 
0

>  <r_i_glide_esite>  (38) 
0

>  <r_i_glide_emodel>  (38) 
-12.5536

>  <r_i_glide_energy>  (38) 
-17.7334

>  <r_i_glide_einternal>  (38) 
0

>  <r_i_glide_intrahb_reward>  (38) 
-0

>  <i_i_glide_confnum>  (38) 
3

>  <i_i_glide_posenum>  (38) 
40

>  <r_i_glide_eff_state_penalty>  (38) 
0

>  <ligand_id>  (38) 
11

>  <original_smiles>  (38) 
CC1(C)COC2(O1)C1CC3CC(C1)CC2C3

>  <smiles>  (38) 
[H]C([H])([H])C1(C([H])([H])[H])OC2(OC1([H])[H])C1([H])C([H])([H])C3([H])C([H])([H])C([H])(C1([H])[H])C([H])([H])C2([H])C3([H])[H]

$$$$
12:0:0
     RDKit          3D

 76 85  0  0  1  0  0  0  0  0999 V2000
    7.2781   -6.9913    1.3877 C   0  0  0  0  0  0  0  0  0  0  0  0
    6.0043   -6.1422    1.4375 C   0  0  2  0  0  0  0  0  0  0  0  0
    4.8314   -7.1154    1.7177 C   0  0  0  0  0  0  0  0  0  0  0  0
    3.3015   -6.9489    1.5485 C   0  0  2  0  0  0  0  0  0  0  0  0
    2.7024   -6.1876    0.5040 O   0  0  0  0  0  0  0  0  0  0  0  0
    2.3064   -5.8408    1.8303 C   0  0  2  0  0  0  0  0  0  0  0  0
    2.4527   -4.3758    2.2459 C   0  0  1  0  0  0  0  0  0  0  0  0
    2.3973   -4.1090    3.6638 O   0  0  0  0  0  0  0  0  0  0  0  0
    3.2107   -4.7726    4.6561 C   0  0  1  0  0  0  0  0  0  0  0  0
    2.7277   -6.2466    4.7481 C   0  0  0  0  0  0  0  0  0  0  0  0
    4.7156   -4.7546    4.3185 C   0  0  0  0  0  0  0  0  0  0  0  0
    5.5840   -5.1341    5.2779 C   0  0  0  0  0  0  0  0  0  0  0  0
    5.1346   -5.4586    6.6895 C   0  0  0  0  0  0  0  0  0  0  0  0
    4.0445   -4.4592    7.1502 C   0  0  2  0  0  0  0  0  0  0  0  0
    3.2675   -4.8814    8.4068 C   0  0  0  0  0  0  0  0  0  0  0  0
    1.8254   -5.1157    7.9497 C   0  0  2  0  0  0  0  0  0  0  0  0
    0.7670   -5.0955    9.0986 C   0  0  0  0  0  0  0  0  0  0  0  0
    0.6686   -6.5448    9.4722 C   0  0  0  0  0  0  0  0  0  0  0  0
    0.0137   -6.9800   10.4331 O   0  0  0  0  0  0  0  0  0  0  0  0
    1.3329   -7.2639    8.6048 N   0  0  0  0  0  0  0  0  0  0  0  0
    1.8035   -6.4887    7.5354 O   0  0  0  0  0  0  0  0  0  0  0  0
    1.5872   -4.1664    6.7456 C   0  0  0  0  0  0  0  0  0  0  0  0
    0.7867   -2.8806    7.0827 C   0  0  0  0  0  0  0  0  0  0  0  0
   -0.4592   -3.4976    6.6668 O   0  0  0  0  0  0  0  0  0  0  0  0
    0.3261   -4.4525    5.9077 C   0  0  0  0  0  0  0  0  0  0  0  0
    3.0104   -3.9991    6.0476 C   0  0  2  0  0  0  0  0  0  0  0  0
    3.3370   -2.4987    5.7824 C   0  0  0  0  0  0  0  0  0  0  0  0
    5.2633   -4.0481    3.0658 C   0  0  2  0  0  0  0  0  0  0  0  0
    4.4912   -2.9046    2.4320 C   0  0  0  0  0  0  0  0  0  0  0  0
    3.3721   -3.3586    1.5133 C   0  0  1  0  0  0  0  0  0  0  0  0
    3.8333   -3.4900    0.0164 C   0  0  2  0  0  0  0  0  0  0  0  0
    4.3283   -2.1300   -0.5154 C   0  0  0  0  0  0  0  0  0  0  0  0
    3.8967   -2.1349   -1.8383 O   0  0  0  0  0  0  0  0  0  0  0  0
    2.8822   -2.9421   -2.0305 C   0  0  0  0  0  0  0  0  0  0  0  0
    2.2111   -3.0638   -3.0626 O   0  0  0  0  0  0  0  0  0  0  0  0
    2.7299   -3.6464   -0.8748 O   0  0  0  0  0  0  0  0  0  0  0  0
    4.8723   -4.5948   -0.3292 C   0  0  0  0  0  0  0  0  0  0  0  0
    6.0330   -4.8615    0.6097 C   0  0  1  0  0  0  0  0  0  0  0  0
    6.1795   -4.8188    2.1338 C   0  0  2  0  0  0  0  0  0  0  0  0
    7.3976   -7.5721    2.3035 H   0  0  0  0  0  0  0  0  0  0  0  0
    8.1649   -6.3730    1.2596 H   0  0  0  0  0  0  0  0  0  0  0  0
    7.2714   -7.6861    0.5526 H   0  0  0  0  0  0  0  0  0  0  0  0
    5.0521   -8.0163    1.1365 H   0  0  0  0  0  0  0  0  0  0  0  0
    4.9750   -7.4346    2.7512 H   0  0  0  0  0  0  0  0  0  0  0  0
    2.8374   -7.9214    1.6795 H   0  0  0  0  0  0  0  0  0  0  0  0
    1.3158   -6.2094    2.0684 H   0  0  0  0  0  0  0  0  0  0  0  0
    1.4677   -4.0052    1.9653 H   0  0  0  0  0  0  0  0  0  0  0  0
    3.0370   -6.7430    5.6560 H   0  0  0  0  0  0  0  0  0  0  0  0
    3.1643   -6.8821    3.9958 H   0  0  0  0  0  0  0  0  0  0  0  0
    1.6475   -6.3471    4.6664 H   0  0  0  0  0  0  0  0  0  0  0  0
    6.6518   -5.0861    5.1127 H   0  0  0  0  0  0  0  0  0  0  0  0
    4.8137   -6.4947    6.7528 H   0  0  0  0  0  0  0  0  0  0  0  0
    5.9959   -5.3692    7.3486 H   0  0  0  0  0  0  0  0  0  0  0  0
    4.6190   -3.5852    7.4623 H   0  0  0  0  0  0  0  0  0  0  0  0
    3.7009   -5.7509    8.9132 H   0  0  0  0  0  0  0  0  0  0  0  0
    3.2815   -4.0610    9.1269 H   0  0  0  0  0  0  0  0  0  0  0  0
    1.0424   -4.4816    9.9613 H   0  0  0  0  0  0  0  0  0  0  0  0
   -0.2322   -4.7858    8.7914 H   0  0  0  0  0  0  0  0  0  0  0  0
    1.5448   -8.2522    8.5167 H   0  0  0  0  0  0  0  0  0  0  0  0
    0.7849   -2.6321    8.1431 H   0  0  0  0  0  0  0  0  0  0  0  0
    0.9608   -1.9876    6.4757 H   0  0  0  0  0  0  0  0  0  0  0  0
    0.3770   -4.1541    4.8619 H   0  0  0  0  0  0  0  0  0  0  0  0
   -0.0543   -5.4657    6.0309 H   0  0  0  0  0  0  0  0  0  0  0  0
    3.2597   -1.8940    6.6843 H   0  0  0  0  0  0  0  0  0  0  0  0
    2.6753   -2.0623    5.0371 H   0  0  0  0  0  0  0  0  0  0  0  0
    4.3583   -2.3540    5.4248 H   0  0  0  0  0  0  0  0  0  0  0  0
    5.9715   -3.4010    3.5788 H   0  0  0  0  0  0  0  0  0  0  0  0
    4.0816   -2.2581    3.1999 H   0  0  0  0  0  0  0  0  0  0  0  0
    5.1912   -2.2575    1.9064 H   0  0  0  0  0  0  0  0  0  0  0  0
    2.7366   -2.4738    1.4813 H   0  0  0  0  0  0  0  0  0  0  0  0
    3.8580   -1.3007    0.0196 H   0  0  0  0  0  0  0  0  0  0  0  0
    5.4153   -1.9923   -0.4050 H   0  0  0  0  0  0  0  0  0  0  0  0
    4.4544   -5.5462   -0.6220 H   0  0  0  0  0  0  0  0  0  0  0  0
    5.3298   -4.3121   -1.2764 H   0  0  0  0  0  0  0  0  0  0  0  0
    6.9657   -4.6636    0.1001 H   0  0  0  0  0  0  0  0  0  0  0  0
    7.2074   -4.6657    2.4492 H   0  0  0  0  0  0  0  0  0  0  0  0
  2  1  1  6
  1 40  1  0
  1 41  1  0
  1 42  1  0
  2 38  1  0
  2 39  1  0
  2  3  1  0
  3  4  1  0
  3 43  1  0
  3 44  1  0
  4  6  1  0
  4  5  1  0
  4 45  1  6
  5  6  1  0
  6  7  1  0
  6 46  1  6
  7 30  1  0
  7  8  1  0
  7 47  1  6
  8  9  1  0
  9 26  1  0
  9 10  1  1
  9 11  1  0
 10 48  1  0
 10 49  1  0
 10 50  1  0
 11 12  2  0
 11 28  1  0
 12 13  1  0
 12 51  1  0
 13 14  1  0
 13 52  1  0
 13 53  1  0
 14 26  1  0
 14 15  1  0
 14 54  1  1
 15 16  1  0
 15 55  1  0
 15 56  1  0
 16 21  1  6
 16 17  1  0
 16 22  1  0
 17 18  1  0
 17 57  1  0
 17 58  1  0
 18 19  2  0
 18 20  1  0
 20 21  1  0
 20 59  1  0
 22 25  1  0
 22 23  1  0
 22 26  1  0
 23 24  1  0
 23 60  1  0
 23 61  1  0
 24 25  1  0
 25 62  1  0
 25 63  1  0
 26 27  1  6
 27 64  1  0
 27 65  1  0
 27 66  1  0
 28 39  1  0
 28 29  1  0
 28 67  1  1
 29 30  1  0
 29 68  1  0
 29 69  1  0
 30 31  1  0
 30 70  1  6
 31 36  1  6
 31 32  1  0
 31 37  1  0
 32 33  1  0
 32 71  1  0
 32 72  1  0
 33 34  1  0
 34 35  2  0
 34 36  1  0
 37 38  1  0
 37 73  1  0
 37 74  1  0
 38 39  1  0
 38 75  1  6
 39 76  1  6
M  END
>  <i_m_ct_stereo_status>  (39) 
1

>  <s_m_source_file>  (39) 
/var/tmp/pbs.5076255.sched01/tmpgn4o3w3f/0whq8s7pj.sdf

>  <i_m_source_file_index>  (39) 
19

>  <i_lp_mmshare_version>  (39) 
48012

>  <i_f3d_flags>  (39) 
0

>  <s_epik_input>  (39) 
W0NIMl0xW0NASF0oTzIpW0NASF0yW0NAQEhdKE8zKVtDQEBIXShbQ0gyXTQpW0NAQF01KFtDSDJdT0MoPU8pTzUpW0NIMl1bQ0BASF02W0NAQF0xKFtDSDNdKVtDQEBIXTZbQ0hdNEMoPVtDSF1bQ0gyXVtDQEBIXTdbQ0gyXTgpW0NAQF0zKFtDSDNdKVtDQEBdNyhbQ0gzXSlDOShbQ0gyXU9bQ0gyXTkpW0NAQF0xOFtDSDJdQyg9TylbTkhdTzE=

>  <s_epik_cmdline>  (39) 
J2VwaWtfcHl0aG9uJywgJy1waHQnLCAnMi4wJywgJy1waCcsICc3LjAnLCAnLXRuJywgJzgnLCAnLW1hJywgJzIwMCcsICctaW1hZScsICc8aW5maWxlLm1hZT4nLCAnLW9tYWUnLCAnPG91dGZpbGUubWFlPic=

>  <r_lp_tautomer_probability>  (39) 
1

>  <r_epik_Ionization_Penalty>  (39) 
3.41027e-05

>  <r_epik_Ionization_Penalty_Charging>  (39) 
0

>  <r_epik_Ionization_Penalty_Neutral>  (39) 
3.41027e-05

>  <r_epik_State_Penalty>  (39) 
-0

>  <r_epik_Charging_Adjusted_Penalty>  (39) 
0

>  <i_epik_Tot_Q>  (39) 
0

>  <i_epik_Tot_abs_Q>  (39) 
0

>  <s_epik_Chemistry_Notes>  (39) 
This compound has an ester and may undergo hydrolysis at high or low pH. This compound has a N-S or N-O group and may undergo hydrolysis at high or low pH.

>  <s_lp_Force_Field>  (39) 
OPLS3e

>  <r_lp_Energy>  (39) 
128.651

>  <b_lp_Chiralities_Consistent>  (39) 
1

>  <s_lp_Variant>  (39) 
12:0-1

>  <s_i_glide_gridfile>  (39) 
pfpi4k_grid

>  <i_i_glide_lignum>  (39) 
19

>  <i_i_glide_rotatable_bonds>  (39) 
0

>  <r_i_docking_score>  (39) 
-2.52559

>  <r_i_glide_ligand_efficiency>  (39) 
-0.0647588

>  <r_i_glide_ligand_efficiency_sa>  (39) 
-0.219611

>  <r_i_glide_ligand_efficiency_ln>  (39) 
-0.541559

>  <r_i_glide_gscore>  (39) 
-2.52559

>  <r_i_glide_lipo>  (39) 
-0.470923

>  <r_i_glide_hbond>  (39) 
-0.32

>  <r_i_glide_metal>  (39) 
-0

>  <r_i_glide_rewards>  (39) 
0

>  <r_i_glide_evdw>  (39) 
-26.7853

>  <r_i_glide_ecoul>  (39) 
-2.33773

>  <r_i_glide_erotb>  (39) 
0

>  <r_i_glide_esite>  (39) 
-0.044745

>  <r_i_glide_emodel>  (39) 
-33.3422

>  <r_i_glide_energy>  (39) 
-29.123

>  <r_i_glide_einternal>  (39) 
0

>  <r_i_glide_intrahb_reward>  (39) 
-0

>  <i_i_glide_confnum>  (39) 
2

>  <i_i_glide_posenum>  (39) 
10

>  <r_i_glide_eff_state_penalty>  (39) 
0

>  <ligand_id>  (39) 
12

>  <original_smiles>  (39) 
CC12CC3OC3C3OC4(C)C(=CCC5CC6(CC(=O)NO6)C6(COC6)C54C)C4CC3C3(COC(=O)O3)CC1C42

>  <smiles>  (39) 
[H]C1=C2C3([H])C([H])([H])C4([H])C([H])(OC2(C([H])([H])[H])C2(C([H])([H])[H])C([H])(C1([H])[H])C([H])([H])C1(ON([H])C(=O)C1([H])[H])C21C([H])([H])OC1([H])[H])C1([H])OC1([H])C([H])([H])C1(C([H])([H])[H])C([H])(C([H])([H])C42OC(=O)OC2([H])[H])C31[H]

$$$$
12:0:1
     RDKit          3D

 76 85  0  0  1  0  0  0  0  0999 V2000
    6.3433   -9.0371    1.4244 C   0  0  0  0  0  0  0  0  0  0  0  0
    5.3501   -7.9277    1.7750 C   0  0  2  0  0  0  0  0  0  0  0  0
    3.9864   -8.6302    1.9955 C   0  0  0  0  0  0  0  0  0  0  0  0
    2.5445   -8.0726    2.0211 C   0  0  2  0  0  0  0  0  0  0  0  0
    2.0861   -6.9986    1.1970 O   0  0  0  0  0  0  0  0  0  0  0  0
    1.8765   -6.8349    2.6036 C   0  0  2  0  0  0  0  0  0  0  0  0
    2.4014   -5.5487    3.2287 C   0  0  1  0  0  0  0  0  0  0  0  0
    2.5107   -5.5631    4.6715 O   0  0  0  0  0  0  0  0  0  0  0  0
    3.1896   -6.5863    5.4418 C   0  0  1  0  0  0  0  0  0  0  0  0
    2.3829   -7.9219    5.3294 C   0  0  0  0  0  0  0  0  0  0  0  0
    4.6342   -6.8527    4.9646 C   0  0  0  0  0  0  0  0  0  0  0  0
    5.4288   -7.6038    5.7553 C   0  0  0  0  0  0  0  0  0  0  0  0
    4.9947   -8.0753    7.1259 C   0  0  0  0  0  0  0  0  0  0  0  0
    4.2203   -6.9528    7.8578 C   0  0  2  0  0  0  0  0  0  0  0  0
    3.4358   -7.4164    9.1017 C   0  0  0  0  0  0  0  0  0  0  0  0
    1.9581   -7.2113    8.7648 C   0  0  2  0  0  0  0  0  0  0  0  0
    1.0132   -7.1583   10.0098 C   0  0  0  0  0  0  0  0  0  0  0  0
    0.5828   -8.5963   10.1369 C   0  0  0  0  0  0  0  0  0  0  0  0
   -0.0857   -9.0389   11.0699 O   0  0  0  0  0  0  0  0  0  0  0  0
    0.9842   -9.2630    9.0689 N   0  0  0  0  0  0  0  0  0  0  0  0
    1.5563   -8.4157    8.1132 O   0  0  0  0  0  0  0  0  0  0  0  0
    1.9001   -6.0067    7.7804 C   0  0  0  0  0  0  0  0  0  0  0  0
    1.4654   -4.6433    8.4158 C   0  0  0  0  0  0  0  0  0  0  0  0
    0.5745   -4.3591    7.3383 O   0  0  0  0  0  0  0  0  0  0  0  0
    0.5662   -5.7540    7.0283 C   0  0  0  0  0  0  0  0  0  0  0  0
    3.2677   -6.0637    6.9698 C   0  0  2  0  0  0  0  0  0  0  0  0
    3.9672   -4.6622    6.9143 C   0  0  0  0  0  0  0  0  0  0  0  0
    5.2892   -6.0716    3.8124 C   0  0  2  0  0  0  0  0  0  0  0  0
    4.7780   -4.6816    3.4581 C   0  0  0  0  0  0  0  0  0  0  0  0
    3.5274   -4.6739    2.5927 C   0  0  1  0  0  0  0  0  0  0  0  0
    3.8447   -4.6176    1.0585 C   0  0  2  0  0  0  0  0  0  0  0  0
    4.6537   -3.3410    0.7291 C   0  0  0  0  0  0  0  0  0  0  0  0
    4.1319   -2.9783   -0.5460 O   0  0  0  0  0  0  0  0  0  0  0  0
    2.9264   -3.5018   -0.7640 C   0  0  0  0  0  0  0  0  0  0  0  0
    2.1979   -3.3009   -1.7224 O   0  0  0  0  0  0  0  0  0  0  0  0
    2.7028   -4.3300    0.2677 O   0  0  0  0  0  0  0  0  0  0  0  0
    4.5517   -5.8542    0.4255 C   0  0  0  0  0  0  0  0  0  0  0  0
    5.6570   -6.5557    1.1866 C   0  0  1  0  0  0  0  0  0  0  0  0
    5.9080   -6.8481    2.6691 C   0  0  2  0  0  0  0  0  0  0  0  0
    6.3746   -9.7943    2.2087 H   0  0  0  0  0  0  0  0  0  0  0  0
    7.3525   -8.6404    1.3118 H   0  0  0  0  0  0  0  0  0  0  0  0
    6.0779   -9.5194    0.4831 H   0  0  0  0  0  0  0  0  0  0  0  0
    3.9394   -9.4342    1.2558 H   0  0  0  0  0  0  0  0  0  0  0  0
    4.1060   -9.1661    2.9388 H   0  0  0  0  0  0  0  0  0  0  0  0
    1.8567   -8.9109    2.0300 H   0  0  0  0  0  0  0  0  0  0  0  0
    0.8410   -7.0004    2.8690 H   0  0  0  0  0  0  0  0  0  0  0  0
    1.5320   -4.8980    3.0901 H   0  0  0  0  0  0  0  0  0  0  0  0
    2.6174   -8.6317    6.1100 H   0  0  0  0  0  0  0  0  0  0  0  0
    2.6393   -8.4802    4.4415 H   0  0  0  0  0  0  0  0  0  0  0  0
    1.2972   -7.8214    5.3202 H   0  0  0  0  0  0  0  0  0  0  0  0
    6.4620   -7.7830    5.4882 H   0  0  0  0  0  0  0  0  0  0  0  0
    4.4316   -9.0012    7.0459 H   0  0  0  0  0  0  0  0  0  0  0  0
    5.8891   -8.3223    7.6951 H   0  0  0  0  0  0  0  0  0  0  0  0
    5.0157   -6.3191    8.2543 H   0  0  0  0  0  0  0  0  0  0  0  0
    3.6686   -8.4440    9.4028 H   0  0  0  0  0  0  0  0  0  0  0  0
    3.7038   -6.7720    9.9430 H   0  0  0  0  0  0  0  0  0  0  0  0
    1.4835   -6.7976   10.9281 H   0  0  0  0  0  0  0  0  0  0  0  0
    0.0955   -6.5955    9.8672 H   0  0  0  0  0  0  0  0  0  0  0  0
    0.9675  -10.2427    8.8010 H   0  0  0  0  0  0  0  0  0  0  0  0
    0.8842   -4.7038    9.3369 H   0  0  0  0  0  0  0  0  0  0  0  0
    2.2180   -3.8663    8.5617 H   0  0  0  0  0  0  0  0  0  0  0  0
    0.5454   -5.9176    5.9473 H   0  0  0  0  0  0  0  0  0  0  0  0
   -0.2811   -6.2666    7.4995 H   0  0  0  0  0  0  0  0  0  0  0  0
    4.1840   -4.2478    7.8978 H   0  0  0  0  0  0  0  0  0  0  0  0
    3.3662   -3.9334    6.3734 H   0  0  0  0  0  0  0  0  0  0  0  0
    4.9471   -4.7031    6.4400 H   0  0  0  0  0  0  0  0  0  0  0  0
    6.1903   -5.7445    4.3403 H   0  0  0  0  0  0  0  0  0  0  0  0
    4.5891   -4.1115    4.3606 H   0  0  0  0  0  0  0  0  0  0  0  0
    5.5827   -4.1297    2.9787 H   0  0  0  0  0  0  0  0  0  0  0  0
    3.1385   -3.6730    2.7816 H   0  0  0  0  0  0  0  0  0  0  0  0
    4.4333   -2.5467    1.4371 H   0  0  0  0  0  0  0  0  0  0  0  0
    5.7329   -3.4880    0.7337 H   0  0  0  0  0  0  0  0  0  0  0  0
    3.8870   -6.6062    0.0233 H   0  0  0  0  0  0  0  0  0  0  0  0
    5.0087   -5.5152   -0.5022 H   0  0  0  0  0  0  0  0  0  0  0  0
    6.5776   -6.4979    0.6189 H   0  0  0  0  0  0  0  0  0  0  0  0
    6.9620   -7.0081    2.8889 H   0  0  0  0  0  0  0  0  0  0  0  0
  2  1  1  6
  1 40  1  0
  1 41  1  0
  1 42  1  0
  2 38  1  0
  2 39  1  0
  2  3  1  0
  3  4  1  0
  3 43  1  0
  3 44  1  0
  4  6  1  0
  4  5  1  0
  4 45  1  6
  5  6  1  0
  6  7  1  0
  6 46  1  6
  7 30  1  0
  7  8  1  0
  7 47  1  1
  8  9  1  0
  9 26  1  0
  9 10  1  1
  9 11  1  0
 10 48  1  0
 10 49  1  0
 10 50  1  0
 11 12  2  0
 11 28  1  0
 12 13  1  0
 12 51  1  0
 13 14  1  0
 13 52  1  0
 13 53  1  0
 14 26  1  0
 14 15  1  0
 14 54  1  1
 15 16  1  0
 15 55  1  0
 15 56  1  0
 16 21  1  6
 16 17  1  0
 16 22  1  0
 17 18  1  0
 17 57  1  0
 17 58  1  0
 18 19  2  0
 18 20  1  0
 20 21  1  0
 20 59  1  0
 22 25  1  0
 22 23  1  0
 22 26  1  0
 23 24  1  0
 23 60  1  0
 23 61  1  0
 24 25  1  0
 25 62  1  0
 25 63  1  0
 26 27  1  6
 27 64  1  0
 27 65  1  0
 27 66  1  0
 28 39  1  0
 28 29  1  0
 28 67  1  1
 29 30  1  0
 29 68  1  0
 29 69  1  0
 30 31  1  0
 30 70  1  1
 31 36  1  6
 31 32  1  0
 31 37  1  0
 32 33  1  0
 32 71  1  0
 32 72  1  0
 33 34  1  0
 34 35  2  0
 34 36  1  0
 37 38  1  0
 37 73  1  0
 37 74  1  0
 38 39  1  0
 38 75  1  6
 39 76  1  6
M  END
>  <i_m_ct_stereo_status>  (40) 
1

>  <s_m_source_file>  (40) 
/var/tmp/pbs.5076255.sched01/tmpgn4o3w3f/0whq8s7pj.sdf

>  <i_m_source_file_index>  (40) 
19

>  <i_lp_mmshare_version>  (40) 
48012

>  <i_f3d_flags>  (40) 
0

>  <s_epik_input>  (40) 
W0NIMl0xW0NASF0oTzIpW0NASF0yW0NAQEhdKE8zKVtDQEBIXShbQ0gyXTQpW0NAQF01KFtDSDJdT0MoPU8pTzUpW0NIMl1bQ0BASF02W0NAQF0xKFtDSDNdKVtDQEBIXTZbQ0hdNEMoPVtDSF1bQ0gyXVtDQEBIXTdbQ0gyXTgpW0NAQF0zKFtDSDNdKVtDQEBdNyhbQ0gzXSlDOShbQ0gyXU9bQ0gyXTkpW0NAQF0xOFtDSDJdQyg9TylbTkhdTzE=

>  <s_epik_cmdline>  (40) 
J2VwaWtfcHl0aG9uJywgJy1waHQnLCAnMi4wJywgJy1waCcsICc3LjAnLCAnLXRuJywgJzgnLCAnLW1hJywgJzIwMCcsICctaW1hZScsICc8aW5maWxlLm1hZT4nLCAnLW9tYWUnLCAnPG91dGZpbGUubWFlPic=

>  <r_lp_tautomer_probability>  (40) 
1

>  <r_epik_Ionization_Penalty>  (40) 
3.41027e-05

>  <r_epik_Ionization_Penalty_Charging>  (40) 
0

>  <r_epik_Ionization_Penalty_Neutral>  (40) 
3.41027e-05

>  <r_epik_State_Penalty>  (40) 
-0

>  <r_epik_Charging_Adjusted_Penalty>  (40) 
0

>  <i_epik_Tot_Q>  (40) 
0

>  <i_epik_Tot_abs_Q>  (40) 
0

>  <s_epik_Chemistry_Notes>  (40) 
This compound has an ester and may undergo hydrolysis at high or low pH. This compound has a N-S or N-O group and may undergo hydrolysis at high or low pH.

>  <s_lp_Force_Field>  (40) 
OPLS3e

>  <r_lp_Energy>  (40) 
128.651

>  <b_lp_Chiralities_Consistent>  (40) 
1

>  <s_lp_Variant>  (40) 
12:0-1

>  <s_i_glide_gridfile>  (40) 
pfpi4k_grid

>  <i_i_glide_lignum>  (40) 
19

>  <i_i_glide_rotatable_bonds>  (40) 
0

>  <r_i_docking_score>  (40) 
-2.03749

>  <r_i_glide_ligand_efficiency>  (40) 
-0.0522433

>  <r_i_glide_ligand_efficiency_sa>  (40) 
-0.177168

>  <r_i_glide_ligand_efficiency_ln>  (40) 
-0.436895

>  <r_i_glide_gscore>  (40) 
-2.03749

>  <r_i_glide_lipo>  (40) 
-0.413662

>  <r_i_glide_hbond>  (40) 
-0.021326

>  <r_i_glide_metal>  (40) 
-0

>  <r_i_glide_rewards>  (40) 
-0.0118409

>  <r_i_glide_evdw>  (40) 
-28.7474

>  <r_i_glide_ecoul>  (40) 
-0.452967

>  <r_i_glide_erotb>  (40) 
0

>  <r_i_glide_esite>  (40) 
-0.0853446

>  <r_i_glide_emodel>  (40) 
-32.3395

>  <r_i_glide_energy>  (40) 
-29.2003

>  <r_i_glide_einternal>  (40) 
0

>  <r_i_glide_intrahb_reward>  (40) 
-0

>  <i_i_glide_confnum>  (40) 
1

>  <i_i_glide_posenum>  (40) 
1

>  <r_i_glide_eff_state_penalty>  (40) 
0

>  <ligand_id>  (40) 
12

>  <original_smiles>  (40) 
CC12CC3OC3C3OC4(C)C(=CCC5CC6(CC(=O)NO6)C6(COC6)C54C)C4CC3C3(COC(=O)O3)CC1C42

>  <smiles>  (40) 
[H]C1=C2C3([H])C([H])([H])C4([H])C([H])(OC2(C([H])([H])[H])C2(C([H])([H])[H])C([H])(C1([H])[H])C([H])([H])C1(ON([H])C(=O)C1([H])[H])C21C([H])([H])OC1([H])[H])C1([H])OC1([H])C([H])([H])C1(C([H])([H])[H])C([H])(C([H])([H])C42OC(=O)OC2([H])[H])C31[H]

$$$$
12:0:2
     RDKit          3D

 76 85  0  0  1  0  0  0  0  0999 V2000
    3.8423   -1.9921    8.4942 C   0  0  0  0  0  0  0  0  0  0  0  0
    3.2210   -2.2790    7.1279 C   0  0  2  0  0  0  0  0  0  0  0  0
    4.3337   -2.9347    6.2673 C   0  0  0  0  0  0  0  0  0  0  0  0
    4.4834   -3.1229    4.7440 C   0  0  2  0  0  0  0  0  0  0  0  0
    4.0168   -2.1771    3.7900 O   0  0  0  0  0  0  0  0  0  0  0  0
    3.5395   -3.5135    3.6110 C   0  0  2  0  0  0  0  0  0  0  0  0
    2.0319   -3.7178    3.5282 C   0  0  1  0  0  0  0  0  0  0  0  0
    1.5713   -5.0768    3.7393 O   0  0  0  0  0  0  0  0  0  0  0  0
    1.9143   -5.9102    4.8728 C   0  0  1  0  0  0  0  0  0  0  0  0
    3.4253   -6.2713    4.7606 C   0  0  0  0  0  0  0  0  0  0  0  0
    1.6680   -5.2223    6.2350 C   0  0  0  0  0  0  0  0  0  0  0  0
    1.7334   -5.9796    7.3486 C   0  0  0  0  0  0  0  0  0  0  0  0
    1.9142   -7.4822    7.2973 C   0  0  0  0  0  0  0  0  0  0  0  0
    1.0714   -8.0772    6.1418 C   0  0  2  0  0  0  0  0  0  0  0  0
    1.4313   -9.5283    5.7624 C   0  0  0  0  0  0  0  0  0  0  0  0
    1.9913   -9.4716    4.3365 C   0  0  2  0  0  0  0  0  0  0  0  0
    1.9941  -10.8410    3.5835 C   0  0  0  0  0  0  0  0  0  0  0  0
    3.3709  -11.3711    3.8856 C   0  0  0  0  0  0  0  0  0  0  0  0
    3.7875  -12.5046    3.5978 O   0  0  0  0  0  0  0  0  0  0  0  0
    4.0639  -10.4365    4.4787 N   0  0  0  0  0  0  0  0  0  0  0  0
    3.3881   -9.2064    4.4997 O   0  0  0  0  0  0  0  0  0  0  0  0
    1.2819   -8.2753    3.6473 C   0  0  0  0  0  0  0  0  0  0  0  0
    0.1082   -8.6463    2.6832 C   0  0  0  0  0  0  0  0  0  0  0  0
    0.5769   -7.6770    1.7055 O   0  0  0  0  0  0  0  0  0  0  0  0
    1.8904   -7.7487    2.3244 C   0  0  0  0  0  0  0  0  0  0  0  0
    0.9793   -7.2291    4.8141 C   0  0  2  0  0  0  0  0  0  0  0  0
   -0.4990   -6.7192    4.7690 C   0  0  0  0  0  0  0  0  0  0  0  0
    1.0629   -3.8092    6.3584 C   0  0  2  0  0  0  0  0  0  0  0  0
    0.2061   -3.2584    5.2296 C   0  0  0  0  0  0  0  0  0  0  0  0
    0.9851   -2.6848    4.0620 C   0  0  1  0  0  0  0  0  0  0  0  0
    1.2543   -1.1446    4.1883 C   0  0  2  0  0  0  0  0  0  0  0  0
   -0.0767   -0.3577    4.2606 C   0  0  0  0  0  0  0  0  0  0  0  0
    0.1880    0.7992    3.5447 O   0  0  0  0  0  0  0  0  0  0  0  0
    1.2229    0.6267    2.7143 C   0  0  0  0  0  0  0  0  0  0  0  0
    1.6535    1.4412    1.8873 O   0  0  0  0  0  0  0  0  0  0  0  0
    1.7733   -0.6168    2.9816 O   0  0  0  0  0  0  0  0  0  0  0  0
    2.1933   -0.6808    5.3444 C   0  0  0  0  0  0  0  0  0  0  0  0
    2.1012   -1.3358    6.7107 C   0  0  1  0  0  0  0  0  0  0  0  0
    1.7999   -2.7689    7.1835 C   0  0  2  0  0  0  0  0  0  0  0  0
    4.2433   -2.9049    8.9349 H   0  0  0  0  0  0  0  0  0  0  0  0
    3.1042   -1.5885    9.1869 H   0  0  0  0  0  0  0  0  0  0  0  0
    4.6450   -1.2599    8.4095 H   0  0  0  0  0  0  0  0  0  0  0  0
    5.2585   -2.4187    6.5482 H   0  0  0  0  0  0  0  0  0  0  0  0
    4.4649   -3.9264    6.7033 H   0  0  0  0  0  0  0  0  0  0  0  0
    5.4858   -3.4702    4.5383 H   0  0  0  0  0  0  0  0  0  0  0  0
    4.0459   -4.0210    2.8050 H   0  0  0  0  0  0  0  0  0  0  0  0
    1.8888   -3.6219    2.4450 H   0  0  0  0  0  0  0  0  0  0  0  0
    3.7079   -7.1170    5.3728 H   0  0  0  0  0  0  0  0  0  0  0  0
    4.0641   -5.5058    5.1859 H   0  0  0  0  0  0  0  0  0  0  0  0
    3.7358   -6.4785    3.7404 H   0  0  0  0  0  0  0  0  0  0  0  0
    1.5196   -5.5513    8.3205 H   0  0  0  0  0  0  0  0  0  0  0  0
    2.9693   -7.7301    7.2283 H   0  0  0  0  0  0  0  0  0  0  0  0
    1.5710   -7.8973    8.2426 H   0  0  0  0  0  0  0  0  0  0  0  0
    0.0729   -8.1556    6.5757 H   0  0  0  0  0  0  0  0  0  0  0  0
    2.1149  -10.0096    6.4748 H   0  0  0  0  0  0  0  0  0  0  0  0
    0.5227  -10.1352    5.7665 H   0  0  0  0  0  0  0  0  0  0  0  0
    1.2091  -11.5340    3.8961 H   0  0  0  0  0  0  0  0  0  0  0  0
    1.9460  -10.7602    2.5043 H   0  0  0  0  0  0  0  0  0  0  0  0
    4.9970  -10.3996    4.8637 H   0  0  0  0  0  0  0  0  0  0  0  0
    0.1568   -9.6568    2.2537 H   0  0  0  0  0  0  0  0  0  0  0  0
   -0.9147   -8.4457    3.0329 H   0  0  0  0  0  0  0  0  0  0  0  0
    2.4085   -6.7814    2.3640 H   0  0  0  0  0  0  0  0  0  0  0  0
    2.5151   -8.5046    1.8280 H   0  0  0  0  0  0  0  0  0  0  0  0
   -1.2195   -7.5367    4.8087 H   0  0  0  0  0  0  0  0  0  0  0  0
   -0.6893   -6.1622    3.8583 H   0  0  0  0  0  0  0  0  0  0  0  0
   -0.7418   -6.0760    5.6136 H   0  0  0  0  0  0  0  0  0  0  0  0
    0.2382   -4.0529    7.0359 H   0  0  0  0  0  0  0  0  0  0  0  0
   -0.4596   -4.0307    4.8686 H   0  0  0  0  0  0  0  0  0  0  0  0
   -0.4718   -2.5110    5.6380 H   0  0  0  0  0  0  0  0  0  0  0  0
    0.2422   -2.7211    3.2677 H   0  0  0  0  0  0  0  0  0  0  0  0
   -0.8683   -0.9176    3.7802 H   0  0  0  0  0  0  0  0  0  0  0  0
   -0.4100   -0.1910    5.2823 H   0  0  0  0  0  0  0  0  0  0  0  0
    3.2394   -0.6046    5.0814 H   0  0  0  0  0  0  0  0  0  0  0  0
    1.9794    0.3708    5.5118 H   0  0  0  0  0  0  0  0  0  0  0  0
    1.8219   -0.5908    7.4461 H   0  0  0  0  0  0  0  0  0  0  0  0
    1.4127   -2.8021    8.1997 H   0  0  0  0  0  0  0  0  0  0  0  0
  2  1  1  1
  1 40  1  0
  1 41  1  0
  1 42  1  0
  2 38  1  0
  2 39  1  0
  2  3  1  0
  3  4  1  0
  3 43  1  0
  3 44  1  0
  4  6  1  0
  4  5  1  0
  4 45  1  1
  5  6  1  0
  6  7  1  0
  6 46  1  6
  7 30  1  0
  7  8  1  0
  7 47  1  6
  8  9  1  0
  9 26  1  0
  9 10  1  6
  9 11  1  0
 10 48  1  0
 10 49  1  0
 10 50  1  0
 11 12  2  0
 11 28  1  0
 12 13  1  0
 12 51  1  0
 13 14  1  0
 13 52  1  0
 13 53  1  0
 14 26  1  0
 14 15  1  0
 14 54  1  1
 15 16  1  0
 15 55  1  0
 15 56  1  0
 16 21  1  1
 16 17  1  0
 16 22  1  0
 17 18  1  0
 17 57  1  0
 17 58  1  0
 18 19  2  0
 18 20  1  0
 20 21  1  0
 20 59  1  0
 22 25  1  0
 22 23  1  0
 22 26  1  0
 23 24  1  0
 23 60  1  0
 23 61  1  0
 24 25  1  0
 25 62  1  0
 25 63  1  0
 26 27  1  6
 27 64  1  0
 27 65  1  0
 27 66  1  0
 28 39  1  0
 28 29  1  0
 28 67  1  1
 29 30  1  0
 29 68  1  0
 29 69  1  0
 30 31  1  0
 30 70  1  6
 31 36  1  6
 31 32  1  0
 31 37  1  0
 32 33  1  0
 32 71  1  0
 32 72  1  0
 33 34  1  0
 34 35  2  0
 34 36  1  0
 37 38  1  0
 37 73  1  0
 37 74  1  0
 38 39  1  0
 38 75  1  1
 39 76  1  1
M  END
>  <i_m_ct_stereo_status>  (41) 
1

>  <s_m_source_file>  (41) 
/var/tmp/pbs.5076255.sched01/tmpgn4o3w3f/0whq8s7pj.sdf

>  <i_m_source_file_index>  (41) 
19

>  <i_lp_mmshare_version>  (41) 
48012

>  <i_f3d_flags>  (41) 
0

>  <s_epik_input>  (41) 
W0NIMl0xW0NASF0oTzIpW0NASF0yW0NAQEhdKE8zKVtDQEBIXShbQ0gyXTQpW0NAQF01KFtDSDJdT0MoPU8pTzUpW0NIMl1bQ0BASF02W0NAQF0xKFtDSDNdKVtDQEBIXTZbQ0hdNEMoPVtDSF1bQ0gyXVtDQEBIXTdbQ0gyXTgpW0NAQF0zKFtDSDNdKVtDQEBdNyhbQ0gzXSlDOShbQ0gyXU9bQ0gyXTkpW0NAQF0xOFtDSDJdQyg9TylbTkhdTzE=

>  <s_epik_cmdline>  (41) 
J2VwaWtfcHl0aG9uJywgJy1waHQnLCAnMi4wJywgJy1waCcsICc3LjAnLCAnLXRuJywgJzgnLCAnLW1hJywgJzIwMCcsICctaW1hZScsICc8aW5maWxlLm1hZT4nLCAnLW9tYWUnLCAnPG91dGZpbGUubWFlPic=

>  <r_lp_tautomer_probability>  (41) 
1

>  <r_epik_Ionization_Penalty>  (41) 
3.41027e-05

>  <r_epik_Ionization_Penalty_Charging>  (41) 
0

>  <r_epik_Ionization_Penalty_Neutral>  (41) 
3.41027e-05

>  <r_epik_State_Penalty>  (41) 
-0

>  <r_epik_Charging_Adjusted_Penalty>  (41) 
0

>  <i_epik_Tot_Q>  (41) 
0

>  <i_epik_Tot_abs_Q>  (41) 
0

>  <s_epik_Chemistry_Notes>  (41) 
This compound has an ester and may undergo hydrolysis at high or low pH. This compound has a N-S or N-O group and may undergo hydrolysis at high or low pH.

>  <s_lp_Force_Field>  (41) 
OPLS3e

>  <r_lp_Energy>  (41) 
128.651

>  <b_lp_Chiralities_Consistent>  (41) 
1

>  <s_lp_Variant>  (41) 
12:0-1

>  <s_i_glide_gridfile>  (41) 
pfpi4k_grid

>  <i_i_glide_lignum>  (41) 
19

>  <i_i_glide_rotatable_bonds>  (41) 
0

>  <r_i_docking_score>  (41) 
-1.66082

>  <r_i_glide_ligand_efficiency>  (41) 
-0.042585

>  <r_i_glide_ligand_efficiency_sa>  (41) 
-0.144415

>  <r_i_glide_ligand_efficiency_ln>  (41) 
-0.356126

>  <r_i_glide_gscore>  (41) 
-1.66082

>  <r_i_glide_lipo>  (41) 
-0.108342

>  <r_i_glide_hbond>  (41) 
0

>  <r_i_glide_metal>  (41) 
-0

>  <r_i_glide_rewards>  (41) 
0

>  <r_i_glide_evdw>  (41) 
-31.088

>  <r_i_glide_ecoul>  (41) 
0.396952

>  <r_i_glide_erotb>  (41) 
0

>  <r_i_glide_esite>  (41) 
-0.0576161

>  <r_i_glide_emodel>  (41) 
-32.9632

>  <r_i_glide_energy>  (41) 
-30.6911

>  <r_i_glide_einternal>  (41) 
0

>  <r_i_glide_intrahb_reward>  (41) 
-0

>  <i_i_glide_confnum>  (41) 
1

>  <i_i_glide_posenum>  (41) 
7

>  <r_i_glide_eff_state_penalty>  (41) 
0

>  <ligand_id>  (41) 
12

>  <original_smiles>  (41) 
CC12CC3OC3C3OC4(C)C(=CCC5CC6(CC(=O)NO6)C6(COC6)C54C)C4CC3C3(COC(=O)O3)CC1C42

>  <smiles>  (41) 
[H]C1=C2C3([H])C([H])([H])C4([H])C([H])(OC2(C([H])([H])[H])C2(C([H])([H])[H])C([H])(C1([H])[H])C([H])([H])C1(ON([H])C(=O)C1([H])[H])C21C([H])([H])OC1([H])[H])C1([H])OC1([H])C([H])([H])C1(C([H])([H])[H])C([H])(C([H])([H])C42OC(=O)OC2([H])[H])C31[H]

$$$$
12:1:0
     RDKit          3D

 76 85  0  0  1  0  0  0  0  0999 V2000
    1.1945  -11.4701    4.8097 C   0  0  0  0  0  0  0  0  0  0  0  0
    2.4947  -10.6786    4.8086 C   0  0  2  0  0  0  0  0  0  0  0  0
    3.3277  -11.1813    3.5876 C   0  0  0  0  0  0  0  0  0  0  0  0
    4.7708  -10.7855    3.0886 C   0  0  2  0  0  0  0  0  0  0  0  0
    5.9030  -10.8480    3.9583 O   0  0  0  0  0  0  0  0  0  0  0  0
    5.7893   -9.6329    3.2235 C   0  0  2  0  0  0  0  0  0  0  0  0
    5.9109   -8.3085    4.0354 C   0  0  1  0  0  0  0  0  0  0  0  0
    5.4342   -7.1349    3.2936 O   0  0  0  0  0  0  0  0  0  0  0  0
    4.1355   -6.9638    2.6076 C   0  0  1  0  0  0  0  0  0  0  0  0
    4.0600   -7.9521    1.3978 C   0  0  0  0  0  0  0  0  0  0  0  0
    2.9025   -7.3144    3.4848 C   0  0  0  0  0  0  0  0  0  0  0  0
    1.6768   -6.8970    3.1476 C   0  0  0  0  0  0  0  0  0  0  0  0
    1.4502   -6.0613    1.9161 C   0  0  0  0  0  0  0  0  0  0  0  0
    2.6016   -5.0688    1.6259 C   0  0  2  0  0  0  0  0  0  0  0  0
    2.8008   -4.7460    0.1472 C   0  0  0  0  0  0  0  0  0  0  0  0
    4.1530   -4.0490    0.1287 C   0  0  2  0  0  0  0  0  0  0  0  0
    3.9898   -2.5150    0.3656 C   0  0  0  0  0  0  0  0  0  0  0  0
    4.9398   -1.9643   -0.6542 C   0  0  0  0  0  0  0  0  0  0  0  0
    5.2636   -0.7542   -0.7472 O   0  0  0  0  0  0  0  0  0  0  0  0
    5.3666   -2.9001   -1.4610 N   0  0  0  0  0  0  0  0  0  0  0  0
    4.7605   -4.1366   -1.1749 O   0  0  0  0  0  0  0  0  0  0  0  0
    5.0312   -4.8370    1.1454 C   0  0  0  0  0  0  0  0  0  0  0  0
    6.3416   -4.1643    1.5939 C   0  0  0  0  0  0  0  0  0  0  0  0
    7.0821   -4.7854    0.5352 O   0  0  0  0  0  0  0  0  0  0  0  0
    6.0655   -5.7920    0.5064 C   0  0  0  0  0  0  0  0  0  0  0  0
    4.0154   -5.4127    2.2146 C   0  0  2  0  0  0  0  0  0  0  0  0
    4.1546   -4.5725    3.5172 C   0  0  0  0  0  0  0  0  0  0  0  0
    3.2037   -8.1636    4.6736 C   0  0  1  0  0  0  0  0  0  0  0  0
    4.1116   -7.5049    5.6728 C   0  0  0  0  0  0  0  0  0  0  0  0
    5.4554   -8.2141    5.5520 C   0  0  1  0  0  0  0  0  0  0  0  0
    5.5608   -9.4041    6.5691 C   0  0  2  0  0  0  0  0  0  0  0  0
    5.5644   -8.8750    8.0282 C   0  0  0  0  0  0  0  0  0  0  0  0
    6.9566   -8.6634    8.2632 O   0  0  0  0  0  0  0  0  0  0  0  0
    7.7372   -9.3164    7.4185 C   0  0  0  0  0  0  0  0  0  0  0  0
    8.9695   -9.3909    7.4339 O   0  0  0  0  0  0  0  0  0  0  0  0
    6.9169   -9.8598    6.5275 O   0  0  0  0  0  0  0  0  0  0  0  0
    4.5245  -10.5840    6.4375 C   0  0  0  0  0  0  0  0  0  0  0  0
    3.0478  -10.2634    6.1604 C   0  0  1  0  0  0  0  0  0  0  0  0
    2.3607   -9.2350    5.2433 C   0  0  2  0  0  0  0  0  0  0  0  0
    0.6259  -11.3325    3.8879 H   0  0  0  0  0  0  0  0  0  0  0  0
    0.5589  -11.1780    5.6459 H   0  0  0  0  0  0  0  0  0  0  0  0
    1.4034  -12.5351    4.9182 H   0  0  0  0  0  0  0  0  0  0  0  0
    3.3424  -12.2716    3.6680 H   0  0  0  0  0  0  0  0  0  0  0  0
    2.6834  -11.0002    2.7243 H   0  0  0  0  0  0  0  0  0  0  0  0
    4.9441  -11.2934    2.1473 H   0  0  0  0  0  0  0  0  0  0  0  0
    6.4748   -9.6035    2.3817 H   0  0  0  0  0  0  0  0  0  0  0  0
    6.9929   -8.1663    4.0864 H   0  0  0  0  0  0  0  0  0  0  0  0
    3.4599   -7.5571    0.5830 H   0  0  0  0  0  0  0  0  0  0  0  0
    3.5739   -8.8865    1.6771 H   0  0  0  0  0  0  0  0  0  0  0  0
    5.0150   -8.2628    0.9771 H   0  0  0  0  0  0  0  0  0  0  0  0
    0.8079   -7.1779    3.7315 H   0  0  0  0  0  0  0  0  0  0  0  0
    1.2860   -6.7358    1.0749 H   0  0  0  0  0  0  0  0  0  0  0  0
    0.5413   -5.4938    2.0813 H   0  0  0  0  0  0  0  0  0  0  0  0
    2.2950   -4.1213    2.0689 H   0  0  0  0  0  0  0  0  0  0  0  0
    2.9091   -5.6851   -0.3784 H   0  0  0  0  0  0  0  0  0  0  0  0
    1.9842   -4.1834   -0.3289 H   0  0  0  0  0  0  0  0  0  0  0  0
    2.9901   -2.1289    0.1352 H   0  0  0  0  0  0  0  0  0  0  0  0
    4.2378   -2.1864    1.3775 H   0  0  0  0  0  0  0  0  0  0  0  0
    6.0938   -2.9322   -2.1658 H   0  0  0  0  0  0  0  0  0  0  0  0
    6.4078   -3.0897    1.4770 H   0  0  0  0  0  0  0  0  0  0  0  0
    6.6903   -4.5025    2.5690 H   0  0  0  0  0  0  0  0  0  0  0  0
    6.4547   -6.6132    1.1039 H   0  0  0  0  0  0  0  0  0  0  0  0
    5.7856   -6.1010   -0.4880 H   0  0  0  0  0  0  0  0  0  0  0  0
    4.1849   -3.5036    3.3147 H   0  0  0  0  0  0  0  0  0  0  0  0
    5.0662   -4.8096    4.0631 H   0  0  0  0  0  0  0  0  0  0  0  0
    3.3238   -4.7371    4.2062 H   0  0  0  0  0  0  0  0  0  0  0  0
    3.7251   -8.8414    4.0729 H   0  0  0  0  0  0  0  0  0  0  0  0
    4.2403   -6.4445    5.4735 H   0  0  0  0  0  0  0  0  0  0  0  0
    3.6595   -7.5461    6.6588 H   0  0  0  0  0  0  0  0  0  0  0  0
    6.1465   -7.4710    5.9434 H   0  0  0  0  0  0  0  0  0  0  0  0
    4.9518   -7.9804    8.2459 H   0  0  0  0  0  0  0  0  0  0  0  0
    5.2005   -9.6427    8.7155 H   0  0  0  0  0  0  0  0  0  0  0  0
    4.8233  -11.3928    5.7875 H   0  0  0  0  0  0  0  0  0  0  0  0
    4.5217  -11.1389    7.3733 H   0  0  0  0  0  0  0  0  0  0  0  0
    2.4424  -10.5298    7.0089 H   0  0  0  0  0  0  0  0  0  0  0  0
    1.3794   -8.9104    5.5781 H   0  0  0  0  0  0  0  0  0  0  0  0
  2  1  1  1
  1 40  1  0
  1 41  1  0
  1 42  1  0
  2 38  1  0
  2 39  1  0
  2  3  1  0
  3  4  1  0
  3 43  1  0
  3 44  1  0
  4  6  1  0
  4  5  1  0
  4 45  1  6
  5  6  1  0
  6  7  1  0
  6 46  1  6
  7 30  1  0
  7  8  1  0
  7 47  1  1
  8  9  1  0
  9 26  1  0
  9 10  1  6
  9 11  1  0
 10 48  1  0
 10 49  1  0
 10 50  1  0
 11 12  2  0
 11 28  1  0
 12 13  1  0
 12 51  1  0
 13 14  1  0
 13 52  1  0
 13 53  1  0
 14 26  1  0
 14 15  1  0
 14 54  1  1
 15 16  1  0
 15 55  1  0
 15 56  1  0
 16 21  1  6
 16 17  1  0
 16 22  1  0
 17 18  1  0
 17 57  1  0
 17 58  1  0
 18 19  2  0
 18 20  1  0
 20 21  1  0
 20 59  1  0
 22 25  1  0
 22 23  1  0
 22 26  1  0
 23 24  1  0
 23 60  1  0
 23 61  1  0
 24 25  1  0
 25 62  1  0
 25 63  1  0
 26 27  1  1
 27 64  1  0
 27 65  1  0
 27 66  1  0
 28 39  1  0
 28 29  1  0
 28 67  1  6
 29 30  1  0
 29 68  1  0
 29 69  1  0
 30 31  1  0
 30 70  1  1
 31 36  1  6
 31 32  1  0
 31 37  1  0
 32 33  1  0
 32 71  1  0
 32 72  1  0
 33 34  1  0
 34 35  2  0
 34 36  1  0
 37 38  1  0
 37 73  1  0
 37 74  1  0
 38 39  1  0
 38 75  1  1
 39 76  1  1
M  END
>  <i_m_ct_stereo_status>  (42) 
1

>  <s_m_source_file>  (42) 
/var/tmp/pbs.5076255.sched01/tmpgn4o3w3f/0whq8s7pj.sdf

>  <i_m_source_file_index>  (42) 
20

>  <i_lp_mmshare_version>  (42) 
48012

>  <i_f3d_flags>  (42) 
0

>  <s_epik_input>  (42) 
W0NIMl0xW0NASF0oTzIpW0NASF0yW0NAQEhdKE8zKVtDQEBIXShbQ0gyXTQpW0NAQF01KFtDSDJdT0MoPU8pTzUpW0NIMl1bQ0BASF02W0NAQF0xKFtDSDNdKVtDQEBIXTZbQ0hdNEMoPVtDSF1bQ0gyXVtDQEBIXTdbQ0gyXTgpW0NAQF0zKFtDSDNdKVtDQEBdNyhbQ0gzXSlDOShbQ0gyXU9bQ0gyXTkpW0NAQF0xOFtDSDJdQyg9TylbTkhdTzE=

>  <s_epik_cmdline>  (42) 
J2VwaWtfcHl0aG9uJywgJy1waHQnLCAnMi4wJywgJy1waCcsICc3LjAnLCAnLXRuJywgJzgnLCAnLW1hJywgJzIwMCcsICctaW1hZScsICc8aW5maWxlLm1hZT4nLCAnLW9tYWUnLCAnPG91dGZpbGUubWFlPic=

>  <r_lp_tautomer_probability>  (42) 
1

>  <r_epik_Ionization_Penalty>  (42) 
3.41027e-05

>  <r_epik_Ionization_Penalty_Charging>  (42) 
0

>  <r_epik_Ionization_Penalty_Neutral>  (42) 
3.41027e-05

>  <r_epik_State_Penalty>  (42) 
-0

>  <r_epik_Charging_Adjusted_Penalty>  (42) 
0

>  <i_epik_Tot_Q>  (42) 
0

>  <i_epik_Tot_abs_Q>  (42) 
0

>  <s_epik_Chemistry_Notes>  (42) 
This compound has an ester and may undergo hydrolysis at high or low pH. This compound has a N-S or N-O group and may undergo hydrolysis at high or low pH.

>  <s_lp_Force_Field>  (42) 
OPLS3e

>  <r_lp_Energy>  (42) 
142.569

>  <b_lp_Chiralities_Consistent>  (42) 
1

>  <s_lp_Variant>  (42) 
12:0-2

>  <s_i_glide_gridfile>  (42) 
pfpi4k_grid

>  <i_i_glide_lignum>  (42) 
20

>  <i_i_glide_rotatable_bonds>  (42) 
0

>  <r_i_docking_score>  (42) 
-1.73015

>  <r_i_glide_ligand_efficiency>  (42) 
-0.0443629

>  <r_i_glide_ligand_efficiency_sa>  (42) 
-0.150444

>  <r_i_glide_ligand_efficiency_ln>  (42) 
-0.370994

>  <r_i_glide_gscore>  (42) 
-1.73015

>  <r_i_glide_lipo>  (42) 
-0.211402

>  <r_i_glide_hbond>  (42) 
0

>  <r_i_glide_metal>  (42) 
-0

>  <r_i_glide_rewards>  (42) 
0

>  <r_i_glide_evdw>  (42) 
-26.7661

>  <r_i_glide_ecoul>  (42) 
-1.05717

>  <r_i_glide_erotb>  (42) 
0

>  <r_i_glide_esite>  (42) 
-0.0218715

>  <r_i_glide_emodel>  (42) 
-29.8492

>  <r_i_glide_energy>  (42) 
-27.8233

>  <r_i_glide_einternal>  (42) 
0

>  <r_i_glide_intrahb_reward>  (42) 
-0

>  <i_i_glide_confnum>  (42) 
5

>  <i_i_glide_posenum>  (42) 
1

>  <r_i_glide_eff_state_penalty>  (42) 
0

>  <ligand_id>  (42) 
12

>  <original_smiles>  (42) 
CC12CC3OC3C3OC4(C)C(=CCC5CC6(CC(=O)NO6)C6(COC6)C54C)C4CC3C3(COC(=O)O3)CC1C42

>  <smiles>  (42) 
[H]C1=C2C3([H])C([H])([H])C4([H])C([H])(OC2(C([H])([H])[H])C2(C([H])([H])[H])C([H])(C1([H])[H])C([H])([H])C1(ON([H])C(=O)C1([H])[H])C21C([H])([H])OC1([H])[H])C1([H])OC1([H])C([H])([H])C1(C([H])([H])[H])C([H])(C([H])([H])C42OC(=O)OC2([H])[H])C31[H]

$$$$
12:1:1
     RDKit          3D

 76 85  0  0  1  0  0  0  0  0999 V2000
    0.9510  -11.5936    4.2695 C   0  0  0  0  0  0  0  0  0  0  0  0
    1.4540  -10.3306    4.9677 C   0  0  2  0  0  0  0  0  0  0  0  0
    3.0216  -10.3946    4.9703 C   0  0  0  0  0  0  0  0  0  0  0  0
    4.1131   -9.4425    5.5936 C   0  0  2  0  0  0  0  0  0  0  0  0
    4.0864   -9.0920    6.9832 O   0  0  0  0  0  0  0  0  0  0  0  0
    4.2564   -7.9827    6.1001 C   0  0  2  0  0  0  0  0  0  0  0  0
    3.3188   -6.7587    6.2879 C   0  0  1  0  0  0  0  0  0  0  0  0
    3.3346   -5.8521    5.1274 O   0  0  0  0  0  0  0  0  0  0  0  0
    3.0888   -6.1935    3.7151 C   0  0  1  0  0  0  0  0  0  0  0  0
    4.2299   -7.1414    3.2082 C   0  0  0  0  0  0  0  0  0  0  0  0
    1.7976   -7.0112    3.4634 C   0  0  0  0  0  0  0  0  0  0  0  0
    1.2683   -7.1126    2.2376 C   0  0  0  0  0  0  0  0  0  0  0  0
    1.8861   -6.3936    1.0589 C   0  0  0  0  0  0  0  0  0  0  0  0
    2.5230   -5.0385    1.4366 C   0  0  2  0  0  0  0  0  0  0  0  0
    3.7002   -4.6041    0.5653 C   0  0  0  0  0  0  0  0  0  0  0  0
    4.2424   -3.4016    1.3248 C   0  0  2  0  0  0  0  0  0  0  0  0
    3.5289   -2.0717    0.9193 C   0  0  0  0  0  0  0  0  0  0  0  0
    4.7002   -1.1224    0.7975 C   0  0  0  0  0  0  0  0  0  0  0  0
    4.5911    0.0883    0.6150 O   0  0  0  0  0  0  0  0  0  0  0  0
    5.8215   -1.7854    0.9416 N   0  0  0  0  0  0  0  0  0  0  0  0
    5.6042   -3.1683    0.9292 O   0  0  0  0  0  0  0  0  0  0  0  0
    4.1510   -3.8048    2.8281 C   0  0  0  0  0  0  0  0  0  0  0  0
    4.3054   -2.6485    3.8608 C   0  0  0  0  0  0  0  0  0  0  0  0
    5.2341   -3.4426    4.6241 O   0  0  0  0  0  0  0  0  0  0  0  0
    5.4792   -4.2725    3.4585 C   0  0  0  0  0  0  0  0  0  0  0  0
    2.9118   -4.7914    2.9312 C   0  0  2  0  0  0  0  0  0  0  0  0
    1.7101   -4.0307    3.5852 C   0  0  0  0  0  0  0  0  0  0  0  0
    1.2568   -7.7247    4.6656 C   0  0  1  0  0  0  0  0  0  0  0  0
    0.8059   -6.7927    5.7582 C   0  0  0  0  0  0  0  0  0  0  0  0
    1.8459   -6.8896    6.8628 C   0  0  1  0  0  0  0  0  0  0  0  0
    1.4482   -7.9753    7.9246 C   0  0  2  0  0  0  0  0  0  0  0  0
    0.1549   -7.5557    8.6799 C   0  0  0  0  0  0  0  0  0  0  0  0
    0.6148   -6.8048    9.7541 O   0  0  0  0  0  0  0  0  0  0  0  0
    1.9313   -7.0621    9.9941 C   0  0  0  0  0  0  0  0  0  0  0  0
    2.5949   -6.6067   10.9225 O   0  0  0  0  0  0  0  0  0  0  0  0
    2.3817   -7.8981    8.9889 O   0  0  0  0  0  0  0  0  0  0  0  0
    1.2822   -9.4560    7.4216 C   0  0  0  0  0  0  0  0  0  0  0  0
    0.5900   -9.7766    6.0862 C   0  0  1  0  0  0  0  0  0  0  0  0
    0.6387   -9.0791    4.7084 C   0  0  2  0  0  0  0  0  0  0  0  0
    1.3192  -11.6640    3.2470 H   0  0  0  0  0  0  0  0  0  0  0  0
   -0.1367  -11.6039    4.2185 H   0  0  0  0  0  0  0  0  0  0  0  0
    1.2507  -12.4879    4.8132 H   0  0  0  0  0  0  0  0  0  0  0  0
    3.2686  -11.3820    5.3584 H   0  0  0  0  0  0  0  0  0  0  0  0
    3.2866  -10.4500    3.9155 H   0  0  0  0  0  0  0  0  0  0  0  0
    5.0830   -9.8169    5.2754 H   0  0  0  0  0  0  0  0  0  0  0  0
    5.2898   -7.6438    6.0744 H   0  0  0  0  0  0  0  0  0  0  0  0
    3.8339   -6.1862    7.0635 H   0  0  0  0  0  0  0  0  0  0  0  0
    4.4884   -6.9599    2.1694 H   0  0  0  0  0  0  0  0  0  0  0  0
    3.9390   -8.1887    3.2530 H   0  0  0  0  0  0  0  0  0  0  0  0
    5.1515   -7.0821    3.7839 H   0  0  0  0  0  0  0  0  0  0  0  0
    0.4143   -7.7489    2.0468 H   0  0  0  0  0  0  0  0  0  0  0  0
    2.6485   -7.0449    0.6317 H   0  0  0  0  0  0  0  0  0  0  0  0
    1.1279   -6.2482    0.2919 H   0  0  0  0  0  0  0  0  0  0  0  0
    1.7884   -4.2800    1.1945 H   0  0  0  0  0  0  0  0  0  0  0  0
    4.4625   -5.3813    0.5572 H   0  0  0  0  0  0  0  0  0  0  0  0
    3.4248   -4.3923   -0.4765 H   0  0  0  0  0  0  0  0  0  0  0  0
    3.0435   -2.1129   -0.0608 H   0  0  0  0  0  0  0  0  0  0  0  0
    2.8021   -1.7118    1.6504 H   0  0  0  0  0  0  0  0  0  0  0  0
    6.7968   -1.5056    1.0163 H   0  0  0  0  0  0  0  0  0  0  0  0
    4.8453   -1.7624    3.4948 H   0  0  0  0  0  0  0  0  0  0  0  0
    3.4148   -2.3411    4.4351 H   0  0  0  0  0  0  0  0  0  0  0  0
    5.6443   -5.2795    3.7001 H   0  0  0  0  0  0  0  0  0  0  0  0
    6.3289   -3.8695    2.8897 H   0  0  0  0  0  0  0  0  0  0  0  0
    1.5782   -3.0330    3.1613 H   0  0  0  0  0  0  0  0  0  0  0  0
    1.8533   -3.8929    4.6556 H   0  0  0  0  0  0  0  0  0  0  0  0
    0.7543   -4.5360    3.4558 H   0  0  0  0  0  0  0  0  0  0  0  0
    2.2037   -8.1192    4.8786 H   0  0  0  0  0  0  0  0  0  0  0  0
    0.7297   -5.7631    5.4139 H   0  0  0  0  0  0  0  0  0  0  0  0
   -0.2031   -7.0517    6.0676 H   0  0  0  0  0  0  0  0  0  0  0  0
    1.7229   -5.9527    7.3955 H   0  0  0  0  0  0  0  0  0  0  0  0
   -0.5606   -6.9946    8.0855 H   0  0  0  0  0  0  0  0  0  0  0  0
   -0.3635   -8.4344    9.0531 H   0  0  0  0  0  0  0  0  0  0  0  0
    2.1841  -10.0486    7.4705 H   0  0  0  0  0  0  0  0  0  0  0  0
    0.7063   -9.9929    8.1691 H   0  0  0  0  0  0  0  0  0  0  0  0
   -0.3366  -10.3180    6.2623 H   0  0  0  0  0  0  0  0  0  0  0  0
   -0.2590   -9.1851    4.0966 H   0  0  0  0  0  0  0  0  0  0  0  0
  2  1  1  6
  1 40  1  0
  1 41  1  0
  1 42  1  0
  2 38  1  0
  2 39  1  0
  2  3  1  0
  3  4  1  0
  3 43  1  0
  3 44  1  0
  4  6  1  0
  4  5  1  0
  4 45  1  1
  5  6  1  0
  6  7  1  0
  6 46  1  1
  7 30  1  0
  7  8  1  0
  7 47  1  1
  8  9  1  0
  9 26  1  0
  9 10  1  6
  9 11  1  0
 10 48  1  0
 10 49  1  0
 10 50  1  0
 11 12  2  0
 11 28  1  0
 12 13  1  0
 12 51  1  0
 13 14  1  0
 13 52  1  0
 13 53  1  0
 14 26  1  0
 14 15  1  0
 14 54  1  6
 15 16  1  0
 15 55  1  0
 15 56  1  0
 16 21  1  6
 16 17  1  0
 16 22  1  0
 17 18  1  0
 17 57  1  0
 17 58  1  0
 18 19  2  0
 18 20  1  0
 20 21  1  0
 20 59  1  0
 22 25  1  0
 22 23  1  0
 22 26  1  0
 23 24  1  0
 23 60  1  0
 23 61  1  0
 24 25  1  0
 25 62  1  0
 25 63  1  0
 26 27  1  1
 27 64  1  0
 27 65  1  0
 27 66  1  0
 28 39  1  0
 28 29  1  0
 28 67  1  1
 29 30  1  0
 29 68  1  0
 29 69  1  0
 30 31  1  0
 30 70  1  1
 31 36  1  1
 31 32  1  0
 31 37  1  0
 32 33  1  0
 32 71  1  0
 32 72  1  0
 33 34  1  0
 34 35  2  0
 34 36  1  0
 37 38  1  0
 37 73  1  0
 37 74  1  0
 38 39  1  0
 38 75  1  1
 39 76  1  6
M  END
>  <i_m_ct_stereo_status>  (43) 
1

>  <s_m_source_file>  (43) 
/var/tmp/pbs.5076255.sched01/tmpgn4o3w3f/0whq8s7pj.sdf

>  <i_m_source_file_index>  (43) 
20

>  <i_lp_mmshare_version>  (43) 
48012

>  <i_f3d_flags>  (43) 
0

>  <s_epik_input>  (43) 
W0NIMl0xW0NASF0oTzIpW0NASF0yW0NAQEhdKE8zKVtDQEBIXShbQ0gyXTQpW0NAQF01KFtDSDJdT0MoPU8pTzUpW0NIMl1bQ0BASF02W0NAQF0xKFtDSDNdKVtDQEBIXTZbQ0hdNEMoPVtDSF1bQ0gyXVtDQEBIXTdbQ0gyXTgpW0NAQF0zKFtDSDNdKVtDQEBdNyhbQ0gzXSlDOShbQ0gyXU9bQ0gyXTkpW0NAQF0xOFtDSDJdQyg9TylbTkhdTzE=

>  <s_epik_cmdline>  (43) 
J2VwaWtfcHl0aG9uJywgJy1waHQnLCAnMi4wJywgJy1waCcsICc3LjAnLCAnLXRuJywgJzgnLCAnLW1hJywgJzIwMCcsICctaW1hZScsICc8aW5maWxlLm1hZT4nLCAnLW9tYWUnLCAnPG91dGZpbGUubWFlPic=

>  <r_lp_tautomer_probability>  (43) 
1

>  <r_epik_Ionization_Penalty>  (43) 
3.41027e-05

>  <r_epik_Ionization_Penalty_Charging>  (43) 
0

>  <r_epik_Ionization_Penalty_Neutral>  (43) 
3.41027e-05

>  <r_epik_State_Penalty>  (43) 
-0

>  <r_epik_Charging_Adjusted_Penalty>  (43) 
0

>  <i_epik_Tot_Q>  (43) 
0

>  <i_epik_Tot_abs_Q>  (43) 
0

>  <s_epik_Chemistry_Notes>  (43) 
This compound has an ester and may undergo hydrolysis at high or low pH. This compound has a N-S or N-O group and may undergo hydrolysis at high or low pH.

>  <s_lp_Force_Field>  (43) 
OPLS3e

>  <r_lp_Energy>  (43) 
142.569

>  <b_lp_Chiralities_Consistent>  (43) 
1

>  <s_lp_Variant>  (43) 
12:0-2

>  <s_i_glide_gridfile>  (43) 
pfpi4k_grid

>  <i_i_glide_lignum>  (43) 
20

>  <i_i_glide_rotatable_bonds>  (43) 
0

>  <r_i_docking_score>  (43) 
-1.59429

>  <r_i_glide_ligand_efficiency>  (43) 
-0.0408793

>  <r_i_glide_ligand_efficiency_sa>  (43) 
-0.13863

>  <r_i_glide_ligand_efficiency_ln>  (43) 
-0.341862

>  <r_i_glide_gscore>  (43) 
-1.59429

>  <r_i_glide_lipo>  (43) 
-0.084032

>  <r_i_glide_hbond>  (43) 
-0.0181009

>  <r_i_glide_metal>  (43) 
-0

>  <r_i_glide_rewards>  (43) 
-0.0723111

>  <r_i_glide_evdw>  (43) 
-26.7548

>  <r_i_glide_ecoul>  (43) 
-0.541295

>  <r_i_glide_erotb>  (43) 
0

>  <r_i_glide_esite>  (43) 
-0.000914613

>  <r_i_glide_emodel>  (43) 
-28.5764

>  <r_i_glide_energy>  (43) 
-27.2961

>  <r_i_glide_einternal>  (43) 
0

>  <r_i_glide_intrahb_reward>  (43) 
-0

>  <i_i_glide_confnum>  (43) 
3

>  <i_i_glide_posenum>  (43) 
2

>  <r_i_glide_eff_state_penalty>  (43) 
0

>  <ligand_id>  (43) 
12

>  <original_smiles>  (43) 
CC12CC3OC3C3OC4(C)C(=CCC5CC6(CC(=O)NO6)C6(COC6)C54C)C4CC3C3(COC(=O)O3)CC1C42

>  <smiles>  (43) 
[H]C1=C2C3([H])C([H])([H])C4([H])C([H])(OC2(C([H])([H])[H])C2(C([H])([H])[H])C([H])(C1([H])[H])C([H])([H])C1(ON([H])C(=O)C1([H])[H])C21C([H])([H])OC1([H])[H])C1([H])OC1([H])C([H])([H])C1(C([H])([H])[H])C([H])(C([H])([H])C42OC(=O)OC2([H])[H])C31[H]

$$$$
12:1:2
     RDKit          3D

 76 85  0  0  1  0  0  0  0  0999 V2000
    0.7709   -8.9299    7.1007 C   0  0  0  0  0  0  0  0  0  0  0  0
    1.3841   -7.5393    7.0192 C   0  0  2  0  0  0  0  0  0  0  0  0
    2.9441   -7.7133    7.0414 C   0  0  0  0  0  0  0  0  0  0  0  0
    4.1193   -6.6738    7.0480 C   0  0  2  0  0  0  0  0  0  0  0  0
    4.1668   -5.6301    8.0243 O   0  0  0  0  0  0  0  0  0  0  0  0
    4.3779   -5.1770    6.6867 C   0  0  2  0  0  0  0  0  0  0  0  0
    3.5278   -3.9701    6.2142 C   0  0  1  0  0  0  0  0  0  0  0  0
    3.5325   -3.8092    4.7475 O   0  0  0  0  0  0  0  0  0  0  0  0
    3.2125   -4.8263    3.7338 C   0  0  1  0  0  0  0  0  0  0  0  0
    4.3136   -5.9321    3.7565 C   0  0  0  0  0  0  0  0  0  0  0  0
    1.8722   -5.5760    3.9601 C   0  0  0  0  0  0  0  0  0  0  0  0
    1.2776   -6.2629    2.9901 C   0  0  0  0  0  0  0  0  0  0  0  0
    1.8794   -6.3302    1.5962 C   0  0  0  0  0  0  0  0  0  0  0  0
    2.5934   -5.0178    1.2002 C   0  0  2  0  0  0  0  0  0  0  0  0
    3.7845   -5.1989    0.2732 C   0  0  0  0  0  0  0  0  0  0  0  0
    4.4408   -3.8299    0.2479 C   0  0  2  0  0  0  0  0  0  0  0  0
    3.7925   -2.8833   -0.8219 C   0  0  0  0  0  0  0  0  0  0  0  0
    5.0196   -2.2506   -1.4098 C   0  0  0  0  0  0  0  0  0  0  0  0
    4.9965   -1.2956   -2.2318 O   0  0  0  0  0  0  0  0  0  0  0  0
    6.0931   -2.8353   -0.9864 N   0  0  0  0  0  0  0  0  0  0  0  0
    5.8003   -3.9575   -0.1878 O   0  0  0  0  0  0  0  0  0  0  0  0
    4.3841   -3.3743    1.7259 C   0  0  0  0  0  0  0  0  0  0  0  0
    4.6802   -1.8820    1.9946 C   0  0  0  0  0  0  0  0  0  0  0  0
    6.0904   -2.1627    2.1432 O   0  0  0  0  0  0  0  0  0  0  0  0
    5.7196   -3.5196    2.4814 C   0  0  0  0  0  0  0  0  0  0  0  0
    3.0899   -4.0509    2.3289 C   0  0  2  0  0  0  0  0  0  0  0  0
    2.0028   -2.9494    2.4903 C   0  0  0  0  0  0  0  0  0  0  0  0
    1.3466   -5.4914    5.3720 C   0  0  1  0  0  0  0  0  0  0  0  0
    1.0034   -4.0909    5.7951 C   0  0  0  0  0  0  0  0  0  0  0  0
    2.0770   -3.6662    6.7828 C   0  0  1  0  0  0  0  0  0  0  0  0
    1.6483   -3.9835    8.2637 C   0  0  2  0  0  0  0  0  0  0  0  0
    0.4296   -3.1179    8.6843 C   0  0  0  0  0  0  0  0  0  0  0  0
    1.0197   -1.9721    9.1962 O   0  0  0  0  0  0  0  0  0  0  0  0
    2.2911   -2.1597    9.5275 C   0  0  0  0  0  0  0  0  0  0  0  0
    3.0673   -1.3381   10.0805 O   0  0  0  0  0  0  0  0  0  0  0  0
    2.6434   -3.4186    9.1165 O   0  0  0  0  0  0  0  0  0  0  0  0
    1.3777   -5.5008    8.6420 C   0  0  0  0  0  0  0  0  0  0  0  0
    0.6070   -6.4213    7.6778 C   0  0  1  0  0  0  0  0  0  0  0  0
    0.6465   -6.5545    6.1358 C   0  0  2  0  0  0  0  0  0  0  0  0
    1.0937   -9.5553    6.2676 H   0  0  0  0  0  0  0  0  0  0  0  0
   -0.3168   -8.8820    7.0676 H   0  0  0  0  0  0  0  0  0  0  0  0
    1.0534   -9.4271    8.0307 H   0  0  0  0  0  0  0  0  0  0  0  0
    3.1454   -8.3744    7.8905 H   0  0  0  0  0  0  0  0  0  0  0  0
    3.1527   -8.3515    6.1725 H   0  0  0  0  0  0  0  0  0  0  0  0
    5.0439   -7.2229    6.9729 H   0  0  0  0  0  0  0  0  0  0  0  0
    5.4210   -4.9963    6.4821 H   0  0  0  0  0  0  0  0  0  0  0  0
    4.1192   -3.1181    6.5647 H   0  0  0  0  0  0  0  0  0  0  0  0
    4.4680   -6.4003    2.7863 H   0  0  0  0  0  0  0  0  0  0  0  0
    4.0196   -6.7607    4.4070 H   0  0  0  0  0  0  0  0  0  0  0  0
    5.2828   -5.5888    4.1173 H   0  0  0  0  0  0  0  0  0  0  0  0
    0.3733   -6.8354    3.1648 H   0  0  0  0  0  0  0  0  0  0  0  0
    2.5712   -7.1674    1.5772 H   0  0  0  0  0  0  0  0  0  0  0  0
    1.0926   -6.5485    0.8802 H   0  0  0  0  0  0  0  0  0  0  0  0
    1.8656   -4.4615    0.6009 H   0  0  0  0  0  0  0  0  0  0  0  0
    4.4901   -5.9342    0.6436 H   0  0  0  0  0  0  0  0  0  0  0  0
    3.4803   -5.5566   -0.7224 H   0  0  0  0  0  0  0  0  0  0  0  0
    3.2643   -3.4064   -1.6298 H   0  0  0  0  0  0  0  0  0  0  0  0
    3.1001   -2.1462   -0.4155 H   0  0  0  0  0  0  0  0  0  0  0  0
    7.0918   -2.6507   -1.0785 H   0  0  0  0  0  0  0  0  0  0  0  0
    4.5412   -1.2028    1.1587 H   0  0  0  0  0  0  0  0  0  0  0  0
    4.2590   -1.4744    2.9300 H   0  0  0  0  0  0  0  0  0  0  0  0
    5.6648   -3.6173    3.5749 H   0  0  0  0  0  0  0  0  0  0  0  0
    6.4027   -4.2527    2.0550 H   0  0  0  0  0  0  0  0  0  0  0  0
    1.9161   -2.3267    1.5982 H   0  0  0  0  0  0  0  0  0  0  0  0
    2.2075   -2.2806    3.3219 H   0  0  0  0  0  0  0  0  0  0  0  0
    1.0218   -3.3794    2.6699 H   0  0  0  0  0  0  0  0  0  0  0  0
    2.2806   -5.7835    5.7462 H   0  0  0  0  0  0  0  0  0  0  0  0
    0.9877   -3.3994    4.9587 H   0  0  0  0  0  0  0  0  0  0  0  0
   -0.0129   -4.0703    6.1881 H   0  0  0  0  0  0  0  0  0  0  0  0
    2.0380   -2.5905    6.7350 H   0  0  0  0  0  0  0  0  0  0  0  0
   -0.3071   -2.9071    7.8901 H   0  0  0  0  0  0  0  0  0  0  0  0
   -0.1280   -3.6259    9.4626 H   0  0  0  0  0  0  0  0  0  0  0  0
    2.2512   -6.0486    8.9984 H   0  0  0  0  0  0  0  0  0  0  0  0
    0.8068   -5.5187    9.5714 H   0  0  0  0  0  0  0  0  0  0  0  0
   -0.3478   -6.7028    8.0946 H   0  0  0  0  0  0  0  0  0  0  0  0
   -0.2771   -6.8899    5.6782 H   0  0  0  0  0  0  0  0  0  0  0  0
  2  1  1  1
  1 40  1  0
  1 41  1  0
  1 42  1  0
  2 38  1  0
  2 39  1  0
  2  3  1  0
  3  4  1  0
  3 43  1  0
  3 44  1  0
  4  6  1  0
  4  5  1  0
  4 45  1  1
  5  6  1  0
  6  7  1  0
  6 46  1  1
  7 30  1  0
  7  8  1  0
  7 47  1  1
  8  9  1  0
  9 26  1  0
  9 10  1  6
  9 11  1  0
 10 48  1  0
 10 49  1  0
 10 50  1  0
 11 12  2  0
 11 28  1  0
 12 13  1  0
 12 51  1  0
 13 14  1  0
 13 52  1  0
 13 53  1  0
 14 26  1  0
 14 15  1  0
 14 54  1  6
 15 16  1  0
 15 55  1  0
 15 56  1  0
 16 21  1  6
 16 17  1  0
 16 22  1  0
 17 18  1  0
 17 57  1  0
 17 58  1  0
 18 19  2  0
 18 20  1  0
 20 21  1  0
 20 59  1  0
 22 25  1  0
 22 23  1  0
 22 26  1  0
 23 24  1  0
 23 60  1  0
 23 61  1  0
 24 25  1  0
 25 62  1  0
 25 63  1  0
 26 27  1  1
 27 64  1  0
 27 65  1  0
 27 66  1  0
 28 39  1  0
 28 29  1  0
 28 67  1  1
 29 30  1  0
 29 68  1  0
 29 69  1  0
 30 31  1  0
 30 70  1  1
 31 36  1  1
 31 32  1  0
 31 37  1  0
 32 33  1  0
 32 71  1  0
 32 72  1  0
 33 34  1  0
 34 35  2  0
 34 36  1  0
 37 38  1  0
 37 73  1  0
 37 74  1  0
 38 39  1  0
 38 75  1  1
 39 76  1  6
M  END
>  <i_m_ct_stereo_status>  (44) 
1

>  <s_m_source_file>  (44) 
/var/tmp/pbs.5076255.sched01/tmpgn4o3w3f/0whq8s7pj.sdf

>  <i_m_source_file_index>  (44) 
20

>  <i_lp_mmshare_version>  (44) 
48012

>  <i_f3d_flags>  (44) 
0

>  <s_epik_input>  (44) 
W0NIMl0xW0NASF0oTzIpW0NASF0yW0NAQEhdKE8zKVtDQEBIXShbQ0gyXTQpW0NAQF01KFtDSDJdT0MoPU8pTzUpW0NIMl1bQ0BASF02W0NAQF0xKFtDSDNdKVtDQEBIXTZbQ0hdNEMoPVtDSF1bQ0gyXVtDQEBIXTdbQ0gyXTgpW0NAQF0zKFtDSDNdKVtDQEBdNyhbQ0gzXSlDOShbQ0gyXU9bQ0gyXTkpW0NAQF0xOFtDSDJdQyg9TylbTkhdTzE=

>  <s_epik_cmdline>  (44) 
J2VwaWtfcHl0aG9uJywgJy1waHQnLCAnMi4wJywgJy1waCcsICc3LjAnLCAnLXRuJywgJzgnLCAnLW1hJywgJzIwMCcsICctaW1hZScsICc8aW5maWxlLm1hZT4nLCAnLW9tYWUnLCAnPG91dGZpbGUubWFlPic=

>  <r_lp_tautomer_probability>  (44) 
1

>  <r_epik_Ionization_Penalty>  (44) 
3.41027e-05

>  <r_epik_Ionization_Penalty_Charging>  (44) 
0

>  <r_epik_Ionization_Penalty_Neutral>  (44) 
3.41027e-05

>  <r_epik_State_Penalty>  (44) 
-0

>  <r_epik_Charging_Adjusted_Penalty>  (44) 
0

>  <i_epik_Tot_Q>  (44) 
0

>  <i_epik_Tot_abs_Q>  (44) 
0

>  <s_epik_Chemistry_Notes>  (44) 
This compound has an ester and may undergo hydrolysis at high or low pH. This compound has a N-S or N-O group and may undergo hydrolysis at high or low pH.

>  <s_lp_Force_Field>  (44) 
OPLS3e

>  <r_lp_Energy>  (44) 
142.569

>  <b_lp_Chiralities_Consistent>  (44) 
1

>  <s_lp_Variant>  (44) 
12:0-2

>  <s_i_glide_gridfile>  (44) 
pfpi4k_grid

>  <i_i_glide_lignum>  (44) 
20

>  <i_i_glide_rotatable_bonds>  (44) 
0

>  <r_i_docking_score>  (44) 
-1.47239

>  <r_i_glide_ligand_efficiency>  (44) 
-0.0377536

>  <r_i_glide_ligand_efficiency_sa>  (44) 
-0.128031

>  <r_i_glide_ligand_efficiency_ln>  (44) 
-0.315723

>  <r_i_glide_gscore>  (44) 
-1.47239

>  <r_i_glide_lipo>  (44) 
-0.103311

>  <r_i_glide_hbond>  (44) 
0

>  <r_i_glide_metal>  (44) 
-0

>  <r_i_glide_rewards>  (44) 
0

>  <r_i_glide_evdw>  (44) 
-24.78

>  <r_i_glide_ecoul>  (44) 
-0.712875

>  <r_i_glide_erotb>  (44) 
0

>  <r_i_glide_esite>  (44) 
-0.0231477

>  <r_i_glide_emodel>  (44) 
-27.1034

>  <r_i_glide_energy>  (44) 
-25.4929

>  <r_i_glide_einternal>  (44) 
0

>  <r_i_glide_intrahb_reward>  (44) 
-0

>  <i_i_glide_confnum>  (44) 
5

>  <i_i_glide_posenum>  (44) 
4

>  <r_i_glide_eff_state_penalty>  (44) 
0

>  <ligand_id>  (44) 
12

>  <original_smiles>  (44) 
CC12CC3OC3C3OC4(C)C(=CCC5CC6(CC(=O)NO6)C6(COC6)C54C)C4CC3C3(COC(=O)O3)CC1C42

>  <smiles>  (44) 
[H]C1=C2C3([H])C([H])([H])C4([H])C([H])(OC2(C([H])([H])[H])C2(C([H])([H])[H])C([H])(C1([H])[H])C([H])([H])C1(ON([H])C(=O)C1([H])[H])C21C([H])([H])OC1([H])[H])C1([H])OC1([H])C([H])([H])C1(C([H])([H])[H])C([H])(C([H])([H])C42OC(=O)OC2([H])[H])C31[H]

$$$$
13:0:0
     RDKit          3D

 29 31  0  0  1  0  0  0  0  0999 V2000
    4.1031   -1.1235   -0.3555 C   0  0  0  0  0  0  0  0  0  0  0  0
    4.6349   -2.5625   -0.1904 C   0  0  2  0  0  0  0  0  0  0  0  0
    3.8716   -3.2855    0.9435 C   0  0  0  0  0  0  0  0  0  0  0  0
    4.2296   -4.7780    0.9941 C   0  0  0  0  0  0  0  0  0  0  0  0
    5.7052   -4.9926    0.9238 C   0  0  0  0  0  0  0  0  0  0  0  0
    6.3454   -6.0919    1.2984 N   0  0  0  0  0  0  0  0  0  0  0  0
    7.6287   -5.7334    1.0022 C   0  0  0  0  0  0  0  0  0  0  0  0
    7.7874   -4.5164    0.4793 N   0  0  0  0  0  0  0  0  0  0  0  0
    6.5128   -4.0485    0.4277 N   0  0  0  0  0  0  0  0  0  0  0  0
    6.1802   -2.7050   -0.0616 C   0  0  2  0  0  0  0  0  0  0  0  0
    6.8381   -1.6508    0.8494 C   0  0  0  0  0  0  0  0  0  0  0  0
    6.5941   -2.5471   -1.5190 C   0  0  0  0  0  0  0  0  0  0  0  0
    5.4671   -3.2353   -2.2870 C   0  0  0  0  0  0  0  0  0  0  0  0
    4.3313   -3.2159   -1.4231 O   0  0  0  0  0  0  0  0  0  0  0  0
    4.2341   -0.5268    0.5501 H   0  0  0  0  0  0  0  0  0  0  0  0
    3.0326   -1.1469   -0.5733 H   0  0  0  0  0  0  0  0  0  0  0  0
    4.5778   -0.5939   -1.1851 H   0  0  0  0  0  0  0  0  0  0  0  0
    4.1521   -2.8211    1.8919 H   0  0  0  0  0  0  0  0  0  0  0  0
    2.7917   -3.1508    0.8516 H   0  0  0  0  0  0  0  0  0  0  0  0
    3.8497   -5.2318    1.9097 H   0  0  0  0  0  0  0  0  0  0  0  0
    3.7736   -5.2888    0.1447 H   0  0  0  0  0  0  0  0  0  0  0  0
    8.4740   -6.3885    1.1637 H   0  0  0  0  0  0  0  0  0  0  0  0
    6.6389   -0.6312    0.5243 H   0  0  0  0  0  0  0  0  0  0  0  0
    7.9214   -1.7670    0.8615 H   0  0  0  0  0  0  0  0  0  0  0  0
    6.4921   -1.7405    1.8795 H   0  0  0  0  0  0  0  0  0  0  0  0
    6.5909   -1.4929   -1.7847 H   0  0  0  0  0  0  0  0  0  0  0  0
    7.5851   -2.9401   -1.7544 H   0  0  0  0  0  0  0  0  0  0  0  0
    5.2458   -2.7187   -3.2234 H   0  0  0  0  0  0  0  0  0  0  0  0
    5.7358   -4.2657   -2.5246 H   0  0  0  0  0  0  0  0  0  0  0  0
  2  1  1  6
  1 15  1  0
  1 16  1  0
  1 17  1  0
  2 10  1  0
  2 14  1  0
  2  3  1  0
  3  4  1  0
  3 18  1  0
  3 19  1  0
  4  5  1  0
  4 20  1  0
  4 21  1  0
  5  9  1  0
  5  6  2  0
  6  7  1  0
  7  8  2  0
  7 22  1  0
  8  9  1  0
  9 10  1  0
 10 11  1  1
 10 12  1  0
 11 23  1  0
 11 24  1  0
 11 25  1  0
 12 13  1  0
 12 26  1  0
 12 27  1  0
 13 14  1  0
 13 28  1  0
 13 29  1  0
M  END
>  <i_m_ct_stereo_status>  (45) 
1

>  <s_m_source_file>  (45) 
/var/tmp/pbs.5076255.sched01/tmpgn4o3w3f/0whq8s7pj.sdf

>  <i_m_source_file_index>  (45) 
21

>  <i_lp_mmshare_version>  (45) 
48012

>  <i_f3d_flags>  (45) 
0

>  <s_epik_input>  (45) 
TzFbQ0gyXVtDSDJdW0NAQF0oW0NIM10pKFtDQEBdMTJbQ0gzXSluM2MoW0NIMl1bQ0gyXTIpbltjSF1uMw==

>  <s_epik_cmdline>  (45) 
J2VwaWtfcHl0aG9uJywgJy1waHQnLCAnMi4wJywgJy1waCcsICc3LjAnLCAnLXRuJywgJzgnLCAnLW1hJywgJzIwMCcsICctaW1hZScsICc8aW5maWxlLm1hZT4nLCAnLW9tYWUnLCAnPG91dGZpbGUubWFlPic=

>  <r_lp_tautomer_probability>  (45) 
1

>  <r_epik_Ionization_Penalty>  (45) 
0.00410707

>  <r_epik_Ionization_Penalty_Charging>  (45) 
0

>  <r_epik_Ionization_Penalty_Neutral>  (45) 
0.00410707

>  <r_epik_State_Penalty>  (45) 
0.00294579

>  <r_epik_Charging_Adjusted_Penalty>  (45) 
0.00294579

>  <i_epik_Tot_Q>  (45) 
0

>  <i_epik_Tot_abs_Q>  (45) 
0

>  <s_lp_Force_Field>  (45) 
OPLS3e

>  <r_lp_Energy>  (45) 
12.0762

>  <b_lp_Chiralities_Consistent>  (45) 
1

>  <s_lp_Variant>  (45) 
13:0-1

>  <s_i_glide_gridfile>  (45) 
pfpi4k_grid

>  <i_i_glide_lignum>  (45) 
21

>  <i_i_glide_rotatable_bonds>  (45) 
0

>  <r_i_docking_score>  (45) 
-3.68024

>  <r_i_glide_ligand_efficiency>  (45) 
-0.262874

>  <r_i_glide_ligand_efficiency_sa>  (45) 
-0.633564

>  <r_i_glide_ligand_efficiency_ln>  (45) 
-1.01132

>  <r_i_glide_gscore>  (45) 
-3.68024

>  <r_i_glide_lipo>  (45) 
-0.253405

>  <r_i_glide_hbond>  (45) 
0

>  <r_i_glide_metal>  (45) 
-0

>  <r_i_glide_rewards>  (45) 
-2.43619

>  <r_i_glide_evdw>  (45) 
-19.4331

>  <r_i_glide_ecoul>  (45) 
-0.126596

>  <r_i_glide_erotb>  (45) 
0

>  <r_i_glide_esite>  (45) 
0

>  <r_i_glide_emodel>  (45) 
-24.2719

>  <r_i_glide_energy>  (45) 
-19.5597

>  <r_i_glide_einternal>  (45) 
0

>  <r_i_glide_intrahb_reward>  (45) 
-0

>  <i_i_glide_confnum>  (45) 
1

>  <i_i_glide_posenum>  (45) 
7

>  <r_i_glide_eff_state_penalty>  (45) 
0

>  <ligand_id>  (45) 
13

>  <original_smiles>  (45) 
CC12CCc3ncnn3C1(C)CCO2

>  <smiles>  (45) 
[H]c1nc2n(n1)C1(C([H])([H])[H])C([H])([H])C([H])([H])OC1(C([H])([H])[H])C([H])([H])C2([H])[H]

$$$$
13:0:1
     RDKit          3D

 29 31  0  0  1  0  0  0  0  0999 V2000
    5.1893   -3.9112    1.8880 C   0  0  0  0  0  0  0  0  0  0  0  0
    4.4450   -3.1897    0.7446 C   0  0  2  0  0  0  0  0  0  0  0  0
    3.5738   -4.1996   -0.0421 C   0  0  0  0  0  0  0  0  0  0  0  0
    2.6636   -3.4846   -1.0493 C   0  0  0  0  0  0  0  0  0  0  0  0
    3.4150   -2.4767   -1.8489 C   0  0  0  0  0  0  0  0  0  0  0  0
    3.0450   -1.9881   -3.0247 N   0  0  0  0  0  0  0  0  0  0  0  0
    4.0458   -1.0883   -3.2311 C   0  0  0  0  0  0  0  0  0  0  0  0
    5.0015   -1.0518   -2.3002 N   0  0  0  0  0  0  0  0  0  0  0  0
    4.5639   -1.9579   -1.3954 N   0  0  0  0  0  0  0  0  0  0  0  0
    5.3236   -2.2984   -0.1826 C   0  0  2  0  0  0  0  0  0  0  0  0
    6.6695   -2.9361   -0.5875 C   0  0  0  0  0  0  0  0  0  0  0  0
    5.5082   -1.0702    0.6990 C   0  0  0  0  0  0  0  0  0  0  0  0
    4.1602   -0.9506    1.4103 C   0  0  0  0  0  0  0  0  0  0  0  0
    3.5815   -2.2571    1.3958 O   0  0  0  0  0  0  0  0  0  0  0  0
    5.8550   -4.6921    1.5153 H   0  0  0  0  0  0  0  0  0  0  0  0
    4.4688   -4.3898    2.5560 H   0  0  0  0  0  0  0  0  0  0  0  0
    5.7754   -3.2226    2.4991 H   0  0  0  0  0  0  0  0  0  0  0  0
    4.2381   -4.8732   -0.5898 H   0  0  0  0  0  0  0  0  0  0  0  0
    2.9856   -4.8338    0.6259 H   0  0  0  0  0  0  0  0  0  0  0  0
    2.1946   -4.1990   -1.7253 H   0  0  0  0  0  0  0  0  0  0  0  0
    1.8662   -2.9791   -0.5055 H   0  0  0  0  0  0  0  0  0  0  0  0
    4.0965   -0.4624   -4.1107 H   0  0  0  0  0  0  0  0  0  0  0  0
    7.2826   -3.1868    0.2775 H   0  0  0  0  0  0  0  0  0  0  0  0
    7.2617   -2.2586   -1.2006 H   0  0  0  0  0  0  0  0  0  0  0  0
    6.5238   -3.8500   -1.1642 H   0  0  0  0  0  0  0  0  0  0  0  0
    6.2914   -1.2512    1.4366 H   0  0  0  0  0  0  0  0  0  0  0  0
    5.7880   -0.1670    0.1558 H   0  0  0  0  0  0  0  0  0  0  0  0
    4.2766   -0.5983    2.4355 H   0  0  0  0  0  0  0  0  0  0  0  0
    3.5093   -0.2482    0.8850 H   0  0  0  0  0  0  0  0  0  0  0  0
  2  1  1  1
  1 15  1  0
  1 16  1  0
  1 17  1  0
  2 10  1  0
  2 14  1  0
  2  3  1  0
  3  4  1  0
  3 18  1  0
  3 19  1  0
  4  5  1  0
  4 20  1  0
  4 21  1  0
  5  9  1  0
  5  6  2  0
  6  7  1  0
  7  8  2  0
  7 22  1  0
  8  9  1  0
  9 10  1  0
 10 11  1  6
 10 12  1  0
 11 23  1  0
 11 24  1  0
 11 25  1  0
 12 13  1  0
 12 26  1  0
 12 27  1  0
 13 14  1  0
 13 28  1  0
 13 29  1  0
M  END
>  <i_m_ct_stereo_status>  (46) 
1

>  <s_m_source_file>  (46) 
/var/tmp/pbs.5076255.sched01/tmpgn4o3w3f/0whq8s7pj.sdf

>  <i_m_source_file_index>  (46) 
21

>  <i_lp_mmshare_version>  (46) 
48012

>  <i_f3d_flags>  (46) 
0

>  <s_epik_input>  (46) 
TzFbQ0gyXVtDSDJdW0NAQF0oW0NIM10pKFtDQEBdMTJbQ0gzXSluM2MoW0NIMl1bQ0gyXTIpbltjSF1uMw==

>  <s_epik_cmdline>  (46) 
J2VwaWtfcHl0aG9uJywgJy1waHQnLCAnMi4wJywgJy1waCcsICc3LjAnLCAnLXRuJywgJzgnLCAnLW1hJywgJzIwMCcsICctaW1hZScsICc8aW5maWxlLm1hZT4nLCAnLW9tYWUnLCAnPG91dGZpbGUubWFlPic=

>  <r_lp_tautomer_probability>  (46) 
1

>  <r_epik_Ionization_Penalty>  (46) 
0.00410707

>  <r_epik_Ionization_Penalty_Charging>  (46) 
0

>  <r_epik_Ionization_Penalty_Neutral>  (46) 
0.00410707

>  <r_epik_State_Penalty>  (46) 
0.00294579

>  <r_epik_Charging_Adjusted_Penalty>  (46) 
0.00294579

>  <i_epik_Tot_Q>  (46) 
0

>  <i_epik_Tot_abs_Q>  (46) 
0

>  <s_lp_Force_Field>  (46) 
OPLS3e

>  <r_lp_Energy>  (46) 
12.0762

>  <b_lp_Chiralities_Consistent>  (46) 
1

>  <s_lp_Variant>  (46) 
13:0-1

>  <s_i_glide_gridfile>  (46) 
pfpi4k_grid

>  <i_i_glide_lignum>  (46) 
21

>  <i_i_glide_rotatable_bonds>  (46) 
0

>  <r_i_docking_score>  (46) 
-3.63175

>  <r_i_glide_ligand_efficiency>  (46) 
-0.25941

>  <r_i_glide_ligand_efficiency_sa>  (46) 
-0.625216

>  <r_i_glide_ligand_efficiency_ln>  (46) 
-0.997991

>  <r_i_glide_gscore>  (46) 
-3.63175

>  <r_i_glide_lipo>  (46) 
-0.235766

>  <r_i_glide_hbond>  (46) 
0

>  <r_i_glide_metal>  (46) 
-0

>  <r_i_glide_rewards>  (46) 
-2.26578

>  <r_i_glide_evdw>  (46) 
-21.024

>  <r_i_glide_ecoul>  (46) 
-0.050673

>  <r_i_glide_erotb>  (46) 
0

>  <r_i_glide_esite>  (46) 
-0.0713974

>  <r_i_glide_emodel>  (46) 
-25.7146

>  <r_i_glide_energy>  (46) 
-21.0747

>  <r_i_glide_einternal>  (46) 
0

>  <r_i_glide_intrahb_reward>  (46) 
-0

>  <i_i_glide_confnum>  (46) 
1

>  <i_i_glide_posenum>  (46) 
1

>  <r_i_glide_eff_state_penalty>  (46) 
0

>  <ligand_id>  (46) 
13

>  <original_smiles>  (46) 
CC12CCc3ncnn3C1(C)CCO2

>  <smiles>  (46) 
[H]c1nc2n(n1)C1(C([H])([H])[H])C([H])([H])C([H])([H])OC1(C([H])([H])[H])C([H])([H])C2([H])[H]

$$$$
13:0:2
     RDKit          3D

 29 31  0  0  1  0  0  0  0  0999 V2000
    3.8489   -1.4617   -2.1271 C   0  0  0  0  0  0  0  0  0  0  0  0
    4.2141   -2.4790   -1.0259 C   0  0  2  0  0  0  0  0  0  0  0  0
    3.0469   -3.4710   -0.8159 C   0  0  0  0  0  0  0  0  0  0  0  0
    3.4552   -4.6281    0.1082 C   0  0  0  0  0  0  0  0  0  0  0  0
    4.1450   -4.1297    1.3327 C   0  0  0  0  0  0  0  0  0  0  0  0
    4.2858   -4.7989    2.4691 N   0  0  0  0  0  0  0  0  0  0  0  0
    4.9989   -3.8862    3.1918 C   0  0  0  0  0  0  0  0  0  0  0  0
    5.2799   -2.7400    2.5724 N   0  0  0  0  0  0  0  0  0  0  0  0
    4.7179   -2.9207    1.3518 N   0  0  0  0  0  0  0  0  0  0  0  0
    4.7367   -1.8829    0.3150 C   0  0  2  0  0  0  0  0  0  0  0  0
    3.9550   -0.6544    0.8161 C   0  0  0  0  0  0  0  0  0  0  0  0
    6.1664   -1.5349   -0.0730 C   0  0  0  0  0  0  0  0  0  0  0  0
    6.5582   -2.6731   -1.0183 C   0  0  0  0  0  0  0  0  0  0  0  0
    5.3376   -3.1952   -1.5414 O   0  0  0  0  0  0  0  0  0  0  0  0
    2.9630   -0.8817   -1.8654 H   0  0  0  0  0  0  0  0  0  0  0  0
    3.6240   -1.9854   -3.0588 H   0  0  0  0  0  0  0  0  0  0  0  0
    4.6621   -0.7656   -2.3383 H   0  0  0  0  0  0  0  0  0  0  0  0
    2.2159   -2.9287   -0.3561 H   0  0  0  0  0  0  0  0  0  0  0  0
    2.6692   -3.8530   -1.7664 H   0  0  0  0  0  0  0  0  0  0  0  0
    2.5859   -5.2166    0.4023 H   0  0  0  0  0  0  0  0  0  0  0  0
    4.1441   -5.2910   -0.4179 H   0  0  0  0  0  0  0  0  0  0  0  0
    5.3249   -4.0654    4.2060 H   0  0  0  0  0  0  0  0  0  0  0  0
    3.9632    0.1474    0.0834 H   0  0  0  0  0  0  0  0  0  0  0  0
    4.3944   -0.2475    1.7264 H   0  0  0  0  0  0  0  0  0  0  0  0
    2.9129   -0.8943    1.0310 H   0  0  0  0  0  0  0  0  0  0  0  0
    6.1737   -0.5908   -0.6160 H   0  0  0  0  0  0  0  0  0  0  0  0
    6.8473   -1.4202    0.7722 H   0  0  0  0  0  0  0  0  0  0  0  0
    7.1998   -2.3287   -1.8307 H   0  0  0  0  0  0  0  0  0  0  0  0
    7.0933   -3.4557   -0.4756 H   0  0  0  0  0  0  0  0  0  0  0  0
  2  1  1  6
  1 15  1  0
  1 16  1  0
  1 17  1  0
  2 10  1  0
  2 14  1  0
  2  3  1  0
  3  4  1  0
  3 18  1  0
  3 19  1  0
  4  5  1  0
  4 20  1  0
  4 21  1  0
  5  9  1  0
  5  6  2  0
  6  7  1  0
  7  8  2  0
  7 22  1  0
  8  9  1  0
  9 10  1  0
 10 11  1  1
 10 12  1  0
 11 23  1  0
 11 24  1  0
 11 25  1  0
 12 13  1  0
 12 26  1  0
 12 27  1  0
 13 14  1  0
 13 28  1  0
 13 29  1  0
M  END
>  <i_m_ct_stereo_status>  (47) 
1

>  <s_m_source_file>  (47) 
/var/tmp/pbs.5076255.sched01/tmpgn4o3w3f/0whq8s7pj.sdf

>  <i_m_source_file_index>  (47) 
21

>  <i_lp_mmshare_version>  (47) 
48012

>  <i_f3d_flags>  (47) 
0

>  <s_epik_input>  (47) 
TzFbQ0gyXVtDSDJdW0NAQF0oW0NIM10pKFtDQEBdMTJbQ0gzXSluM2MoW0NIMl1bQ0gyXTIpbltjSF1uMw==

>  <s_epik_cmdline>  (47) 
J2VwaWtfcHl0aG9uJywgJy1waHQnLCAnMi4wJywgJy1waCcsICc3LjAnLCAnLXRuJywgJzgnLCAnLW1hJywgJzIwMCcsICctaW1hZScsICc8aW5maWxlLm1hZT4nLCAnLW9tYWUnLCAnPG91dGZpbGUubWFlPic=

>  <r_lp_tautomer_probability>  (47) 
1

>  <r_epik_Ionization_Penalty>  (47) 
0.00410707

>  <r_epik_Ionization_Penalty_Charging>  (47) 
0

>  <r_epik_Ionization_Penalty_Neutral>  (47) 
0.00410707

>  <r_epik_State_Penalty>  (47) 
0.00294579

>  <r_epik_Charging_Adjusted_Penalty>  (47) 
0.00294579

>  <i_epik_Tot_Q>  (47) 
0

>  <i_epik_Tot_abs_Q>  (47) 
0

>  <s_lp_Force_Field>  (47) 
OPLS3e

>  <r_lp_Energy>  (47) 
12.0762

>  <b_lp_Chiralities_Consistent>  (47) 
1

>  <s_lp_Variant>  (47) 
13:0-1

>  <s_i_glide_gridfile>  (47) 
pfpi4k_grid

>  <i_i_glide_lignum>  (47) 
21

>  <i_i_glide_rotatable_bonds>  (47) 
0

>  <r_i_docking_score>  (47) 
-3.24421

>  <r_i_glide_ligand_efficiency>  (47) 
-0.231729

>  <r_i_glide_ligand_efficiency_sa>  (47) 
-0.5585

>  <r_i_glide_ligand_efficiency_ln>  (47) 
-0.891497

>  <r_i_glide_gscore>  (47) 
-3.24421

>  <r_i_glide_lipo>  (47) 
-0.074651

>  <r_i_glide_hbond>  (47) 
0

>  <r_i_glide_metal>  (47) 
-0

>  <r_i_glide_rewards>  (47) 
-2.18434

>  <r_i_glide_evdw>  (47) 
-17.9694

>  <r_i_glide_ecoul>  (47) 
-0.578296

>  <r_i_glide_erotb>  (47) 
0

>  <r_i_glide_esite>  (47) 
0

>  <r_i_glide_emodel>  (47) 
-22.6868

>  <r_i_glide_energy>  (47) 
-18.5477

>  <r_i_glide_einternal>  (47) 
0

>  <r_i_glide_intrahb_reward>  (47) 
-0

>  <i_i_glide_confnum>  (47) 
1

>  <i_i_glide_posenum>  (47) 
11

>  <r_i_glide_eff_state_penalty>  (47) 
0

>  <ligand_id>  (47) 
13

>  <original_smiles>  (47) 
CC12CCc3ncnn3C1(C)CCO2

>  <smiles>  (47) 
[H]c1nc2n(n1)C1(C([H])([H])[H])C([H])([H])C([H])([H])OC1(C([H])([H])[H])C([H])([H])C2([H])[H]

$$$$
16:0:0
     RDKit          3D

 40 44  0  0  1  0  0  0  0  0999 V2000
    2.6131   -2.8566   -2.7498 C   0  0  0  0  0  0  0  0  0  0  0  0
    3.6034   -2.3235   -1.6977 C   0  0  2  0  0  0  0  0  0  0  0  0
    5.0199   -2.1962   -2.2740 C   0  0  0  0  0  0  0  0  0  0  0  0
    5.7946   -3.2739   -1.5516 C   0  0  0  0  0  0  0  0  0  0  0  0
    5.0164   -4.1006   -0.8419 C   0  0  0  0  0  0  0  0  0  0  0  0
    5.5901   -4.9292    0.2030 C   0  0  0  0  0  0  0  0  0  0  0  0
    4.7150   -5.7368    0.8181 C   0  0  0  0  0  0  0  0  0  0  0  0
    3.9605   -6.5926    0.0926 O   0  0  0  0  0  0  0  0  0  0  0  0
    4.0723   -5.1592    1.9663 C   0  0  0  0  0  0  0  0  0  0  0  0
    3.7426   -3.8326    2.0264 C   0  0  0  0  0  0  0  0  0  0  0  0
    4.0183   -2.7438    0.9516 C   0  0  1  0  0  0  0  0  0  0  0  0
    3.1201   -1.5115    1.2781 C   0  0  0  0  0  0  0  0  0  0  0  0
    4.0204   -0.2727    1.4548 C   0  0  1  0  0  0  0  0  0  0  0  0
    4.0680    0.0951    2.8203 O   0  0  0  0  0  0  0  0  0  0  0  0
    5.4125   -0.6762    0.9619 C   0  0  0  0  0  0  0  0  0  0  0  0
    5.4766   -2.1757    1.2272 C   0  0  2  0  0  0  0  0  0  0  0  0
    6.7525   -2.9279    0.6882 C   0  0  2  0  0  0  0  0  0  0  0  0
    7.0508   -2.8571   -0.8346 C   0  0  0  0  0  0  0  0  0  0  0  0
    6.5244   -4.2945    1.0090 O   0  0  0  0  0  0  0  0  0  0  0  0
    3.7602   -3.3296   -0.5134 C   0  0  1  0  0  0  0  0  0  0  0  0
    2.9097   -3.8326   -3.1336 H   0  0  0  0  0  0  0  0  0  0  0  0
    2.5135   -2.1785   -3.5966 H   0  0  0  0  0  0  0  0  0  0  0  0
    1.6199   -2.9732   -2.3180 H   0  0  0  0  0  0  0  0  0  0  0  0
    3.2498   -1.3350   -1.4011 H   0  0  0  0  0  0  0  0  0  0  0  0
    5.0416   -2.3645   -3.3512 H   0  0  0  0  0  0  0  0  0  0  0  0
    5.4312   -1.1980   -2.1110 H   0  0  0  0  0  0  0  0  0  0  0  0
    4.2519   -6.5284   -0.7982 H   0  0  0  0  0  0  0  0  0  0  0  0
    3.8003   -5.7899    2.8007 H   0  0  0  0  0  0  0  0  0  0  0  0
    3.2343   -3.4940    2.9145 H   0  0  0  0  0  0  0  0  0  0  0  0
    2.3926   -1.3268    0.4961 H   0  0  0  0  0  0  0  0  0  0  0  0
    2.5046   -1.6444    2.1680 H   0  0  0  0  0  0  0  0  0  0  0  0
    3.6406    0.5817    0.8966 H   0  0  0  0  0  0  0  0  0  0  0  0
    4.2344    1.0307    2.8715 H   0  0  0  0  0  0  0  0  0  0  0  0
    5.4936   -0.4649   -0.1007 H   0  0  0  0  0  0  0  0  0  0  0  0
    6.2130   -0.1389    1.4663 H   0  0  0  0  0  0  0  0  0  0  0  0
    5.5927   -2.2341    2.3113 H   0  0  0  0  0  0  0  0  0  0  0  0
    7.6319   -2.6160    1.2464 H   0  0  0  0  0  0  0  0  0  0  0  0
    7.8614   -3.5319   -1.0965 H   0  0  0  0  0  0  0  0  0  0  0  0
    7.3655   -1.8560   -1.1182 H   0  0  0  0  0  0  0  0  0  0  0  0
    2.9023   -4.0032   -0.4884 H   0  0  0  0  0  0  0  0  0  0  0  0
  1  2  1  0
  1 21  1  0
  1 22  1  0
  1 23  1  0
  2 20  1  0
  2  3  1  0
  2 24  1  1
  3  4  1  0
  3 25  1  0
  3 26  1  0
  4 18  1  0
  4  5  2  0
  5 20  1  0
  5  6  1  0
  6 19  1  0
  6  7  2  0
  7  8  1  0
  7  9  1  0
  8 27  1  0
  9 10  2  0
  9 28  1  0
 10 11  1  0
 10 29  1  0
 11 16  1  0
 11 12  1  1
 11 20  1  0
 12 13  1  0
 12 30  1  0
 12 31  1  0
 13 14  1  0
 13 15  1  0
 13 32  1  6
 14 33  1  0
 15 16  1  0
 15 34  1  0
 15 35  1  0
 16 17  1  0
 16 36  1  1
 17 18  1  0
 17 19  1  0
 17 37  1  1
 18 38  1  0
 18 39  1  0
 20 40  1  1
M  END
>  <i_m_ct_stereo_status>  (48) 
1

>  <s_m_source_file>  (48) 
/var/tmp/pbs.5076255.sched01/tmpgn4o3w3f/0whq8s7pj.sdf

>  <i_m_source_file_index>  (48) 
29

>  <i_lp_mmshare_version>  (48) 
48012

>  <i_f3d_flags>  (48) 
0

>  <s_epik_input>  (48) 
W0NIXTE9W0NIXUMoW09IXSk9QyhPMilDKFtDQEBIXTNbQ0BIXShbQ0gzXSlbQ0gyXTQpPUM0W0NIMl1bQ0BIXTJbQ0BIXShbQ0BdMTM1KVtDSDJdW0NAQEhdKFtDSDJdNSlbT0hd

>  <s_epik_cmdline>  (48) 
J2VwaWtfcHl0aG9uJywgJy1waHQnLCAnMi4wJywgJy1waCcsICc3LjAnLCAnLXRuJywgJzgnLCAnLW1hJywgJzIwMCcsICctaW1hZScsICc8aW5maWxlLm1hZT4nLCAnLW9tYWUnLCAnPG91dGZpbGUubWFlPic=

>  <r_lp_tautomer_probability>  (48) 
1

>  <r_epik_Ionization_Penalty>  (48) 
1.24465e-05

>  <r_epik_Ionization_Penalty_Charging>  (48) 
0

>  <r_epik_Ionization_Penalty_Neutral>  (48) 
1.24465e-05

>  <r_epik_State_Penalty>  (48) 
-0

>  <r_epik_Charging_Adjusted_Penalty>  (48) 
0

>  <i_epik_Tot_Q>  (48) 
0

>  <i_epik_Tot_abs_Q>  (48) 
0

>  <s_lp_Force_Field>  (48) 
OPLS3e

>  <r_lp_Energy>  (48) 
104.781

>  <b_lp_Chiralities_Consistent>  (48) 
1

>  <s_lp_Variant>  (48) 
16:0-1

>  <s_i_glide_gridfile>  (48) 
pfpi4k_grid

>  <i_i_glide_lignum>  (48) 
29

>  <i_i_glide_rotatable_bonds>  (48) 
2

>  <r_i_docking_score>  (48) 
-4.16634

>  <r_i_glide_ligand_efficiency>  (48) 
-0.208317

>  <r_i_glide_ligand_efficiency_sa>  (48) 
-0.565459

>  <r_i_glide_ligand_efficiency_ln>  (48) 
-1.0427

>  <r_i_glide_gscore>  (48) 
-4.16634

>  <r_i_glide_lipo>  (48) 
-0.799171

>  <r_i_glide_hbond>  (48) 
-0.24233

>  <r_i_glide_metal>  (48) 
-0

>  <r_i_glide_rewards>  (48) 
-1.55223

>  <r_i_glide_evdw>  (48) 
-24.1707

>  <r_i_glide_ecoul>  (48) 
-2.42713

>  <r_i_glide_erotb>  (48) 
0

>  <r_i_glide_esite>  (48) 
0

>  <r_i_glide_emodel>  (48) 
-32.7375

>  <r_i_glide_energy>  (48) 
-26.5978

>  <r_i_glide_einternal>  (48) 
1.04102

>  <r_i_glide_intrahb_reward>  (48) 
-0

>  <i_i_glide_confnum>  (48) 
1

>  <i_i_glide_posenum>  (48) 
37

>  <r_i_glide_eff_state_penalty>  (48) 
0

>  <ligand_id>  (48) 
16

>  <original_smiles>  (48) 
CC1CC2=C3C4=C(O)C=CC5(CC(O)CC5C(C2)O4)C31

>  <smiles>  (48) 
[H]OC1=C2OC3([H])C([H])([H])C4=C2C([H])(C([H])(C([H])([H])[H])C4([H])[H])C2(C([H])=C1[H])C([H])([H])C([H])(O[H])C([H])([H])C32[H]

$$$$
16:0:1
     RDKit          3D

 40 44  0  0  1  0  0  0  0  0999 V2000
    4.2176   -1.1443   -2.9260 C   0  0  0  0  0  0  0  0  0  0  0  0
    4.7306   -2.2007   -1.9316 C   0  0  2  0  0  0  0  0  0  0  0  0
    3.8378   -3.4369   -1.9280 C   0  0  0  0  0  0  0  0  0  0  0  0
    3.1798   -3.4001   -0.5686 C   0  0  0  0  0  0  0  0  0  0  0  0
    3.3738   -2.2485    0.0679 C   0  0  0  0  0  0  0  0  0  0  0  0
    3.1479   -2.1652    1.5090 C   0  0  0  0  0  0  0  0  0  0  0  0
    3.3570   -0.9462    2.0372 C   0  0  0  0  0  0  0  0  0  0  0  0
    2.7179    0.1141    1.5049 O   0  0  0  0  0  0  0  0  0  0  0  0
    4.7187   -0.7027    2.4605 C   0  0  0  0  0  0  0  0  0  0  0  0
    5.7973   -1.2260    1.8122 C   0  0  0  0  0  0  0  0  0  0  0  0
    5.7888   -2.1620    0.5686 C   0  0  1  0  0  0  0  0  0  0  0  0
    7.2183   -2.1663   -0.0514 C   0  0  0  0  0  0  0  0  0  0  0  0
    7.7341   -3.6159   -0.1123 C   0  0  1  0  0  0  0  0  0  0  0  0
    8.7451   -3.8344    0.8506 O   0  0  0  0  0  0  0  0  0  0  0  0
    6.5358   -4.5106    0.1973 C   0  0  0  0  0  0  0  0  0  0  0  0
    5.6530   -3.6568    1.0988 C   0  0  2  0  0  0  0  0  0  0  0  0
    4.2489   -4.2635    1.4737 C   0  0  2  0  0  0  0  0  0  0  0  0
    3.2951   -4.6316    0.2952 C   0  0  0  0  0  0  0  0  0  0  0  0
    3.6194   -3.2341    2.2425 O   0  0  0  0  0  0  0  0  0  0  0  0
    4.6679   -1.6722   -0.4619 C   0  0  1  0  0  0  0  0  0  0  0  0
    3.1978   -0.8363   -2.6941 H   0  0  0  0  0  0  0  0  0  0  0  0
    4.2291   -1.5138   -3.9511 H   0  0  0  0  0  0  0  0  0  0  0  0
    4.8380   -0.2538   -2.8874 H   0  0  0  0  0  0  0  0  0  0  0  0
    5.7211   -2.5043   -2.2689 H   0  0  0  0  0  0  0  0  0  0  0  0
    3.0816   -3.4216   -2.7130 H   0  0  0  0  0  0  0  0  0  0  0  0
    4.4175   -4.3479   -2.0692 H   0  0  0  0  0  0  0  0  0  0  0  0
    2.0162   -0.2061    0.9414 H   0  0  0  0  0  0  0  0  0  0  0  0
    4.8972   -0.0756    3.3305 H   0  0  0  0  0  0  0  0  0  0  0  0
    6.7726   -0.9815    2.1986 H   0  0  0  0  0  0  0  0  0  0  0  0
    7.2168   -1.7636   -1.0567 H   0  0  0  0  0  0  0  0  0  0  0  0
    7.9226   -1.5353    0.4932 H   0  0  0  0  0  0  0  0  0  0  0  0
    8.1642   -3.8423   -1.0868 H   0  0  0  0  0  0  0  0  0  0  0  0
    8.3707   -3.6953    1.7074 H   0  0  0  0  0  0  0  0  0  0  0  0
    6.0076   -4.7397   -0.7198 H   0  0  0  0  0  0  0  0  0  0  0  0
    6.8235   -5.4571    0.6567 H   0  0  0  0  0  0  0  0  0  0  0  0
    6.1792   -3.6541    2.0518 H   0  0  0  0  0  0  0  0  0  0  0  0
    4.3818   -5.1454    2.1081 H   0  0  0  0  0  0  0  0  0  0  0  0
    2.3077   -4.8952    0.6767 H   0  0  0  0  0  0  0  0  0  0  0  0
    3.6688   -5.4823   -0.2819 H   0  0  0  0  0  0  0  0  0  0  0  0
    4.6166   -0.5833   -0.4652 H   0  0  0  0  0  0  0  0  0  0  0  0
  1  2  1  0
  1 21  1  0
  1 22  1  0
  1 23  1  0
  2 20  1  0
  2  3  1  0
  2 24  1  6
  3  4  1  0
  3 25  1  0
  3 26  1  0
  4 18  1  0
  4  5  2  0
  5 20  1  0
  5  6  1  0
  6 19  1  0
  6  7  2  0
  7  8  1  0
  7  9  1  0
  8 27  1  0
  9 10  2  0
  9 28  1  0
 10 11  1  0
 10 29  1  0
 11 16  1  0
 11 12  1  6
 11 20  1  0
 12 13  1  0
 12 30  1  0
 12 31  1  0
 13 14  1  0
 13 15  1  0
 13 32  1  6
 14 33  1  0
 15 16  1  0
 15 34  1  0
 15 35  1  0
 16 17  1  0
 16 36  1  1
 17 18  1  0
 17 19  1  0
 17 37  1  1
 18 38  1  0
 18 39  1  0
 20 40  1  6
M  END
>  <i_m_ct_stereo_status>  (49) 
1

>  <s_m_source_file>  (49) 
/var/tmp/pbs.5076255.sched01/tmpgn4o3w3f/0whq8s7pj.sdf

>  <i_m_source_file_index>  (49) 
29

>  <i_lp_mmshare_version>  (49) 
48012

>  <i_f3d_flags>  (49) 
0

>  <s_epik_input>  (49) 
W0NIXTE9W0NIXUMoW09IXSk9QyhPMilDKFtDQEBIXTNbQ0BIXShbQ0gzXSlbQ0gyXTQpPUM0W0NIMl1bQ0BIXTJbQ0BIXShbQ0BdMTM1KVtDSDJdW0NAQEhdKFtDSDJdNSlbT0hd

>  <s_epik_cmdline>  (49) 
J2VwaWtfcHl0aG9uJywgJy1waHQnLCAnMi4wJywgJy1waCcsICc3LjAnLCAnLXRuJywgJzgnLCAnLW1hJywgJzIwMCcsICctaW1hZScsICc8aW5maWxlLm1hZT4nLCAnLW9tYWUnLCAnPG91dGZpbGUubWFlPic=

>  <r_lp_tautomer_probability>  (49) 
1

>  <r_epik_Ionization_Penalty>  (49) 
1.24465e-05

>  <r_epik_Ionization_Penalty_Charging>  (49) 
0

>  <r_epik_Ionization_Penalty_Neutral>  (49) 
1.24465e-05

>  <r_epik_State_Penalty>  (49) 
-0

>  <r_epik_Charging_Adjusted_Penalty>  (49) 
0

>  <i_epik_Tot_Q>  (49) 
0

>  <i_epik_Tot_abs_Q>  (49) 
0

>  <s_lp_Force_Field>  (49) 
OPLS3e

>  <r_lp_Energy>  (49) 
104.781

>  <b_lp_Chiralities_Consistent>  (49) 
1

>  <s_lp_Variant>  (49) 
16:0-1

>  <s_i_glide_gridfile>  (49) 
pfpi4k_grid

>  <i_i_glide_lignum>  (49) 
29

>  <i_i_glide_rotatable_bonds>  (49) 
2

>  <r_i_docking_score>  (49) 
-3.91119

>  <r_i_glide_ligand_efficiency>  (49) 
-0.195559

>  <r_i_glide_ligand_efficiency_sa>  (49) 
-0.53083

>  <r_i_glide_ligand_efficiency_ln>  (49) 
-0.978841

>  <r_i_glide_gscore>  (49) 
-3.91119

>  <r_i_glide_lipo>  (49) 
-0.742667

>  <r_i_glide_hbond>  (49) 
-0.0577527

>  <r_i_glide_metal>  (49) 
-0

>  <r_i_glide_rewards>  (49) 
-1.55223

>  <r_i_glide_evdw>  (49) 
-25.3959

>  <r_i_glide_ecoul>  (49) 
-1.92491

>  <r_i_glide_erotb>  (49) 
0

>  <r_i_glide_esite>  (49) 
0

>  <r_i_glide_emodel>  (49) 
-33.7206

>  <r_i_glide_energy>  (49) 
-27.3208

>  <r_i_glide_einternal>  (49) 
0.0249946

>  <r_i_glide_intrahb_reward>  (49) 
-0

>  <i_i_glide_confnum>  (49) 
1

>  <i_i_glide_posenum>  (49) 
39

>  <r_i_glide_eff_state_penalty>  (49) 
0

>  <ligand_id>  (49) 
16

>  <original_smiles>  (49) 
CC1CC2=C3C4=C(O)C=CC5(CC(O)CC5C(C2)O4)C31

>  <smiles>  (49) 
[H]OC1=C2OC3([H])C([H])([H])C4=C2C([H])(C([H])(C([H])([H])[H])C4([H])[H])C2(C([H])=C1[H])C([H])([H])C([H])(O[H])C([H])([H])C32[H]

$$$$
16:0:2
     RDKit          3D

 40 44  0  0  1  0  0  0  0  0999 V2000
    4.2204   -1.0436   -2.7260 C   0  0  0  0  0  0  0  0  0  0  0  0
    4.7334   -2.1209   -1.7557 C   0  0  2  0  0  0  0  0  0  0  0  0
    3.7958   -3.3296   -1.7118 C   0  0  0  0  0  0  0  0  0  0  0  0
    3.1954   -3.2672   -0.3273 C   0  0  0  0  0  0  0  0  0  0  0  0
    3.4567   -2.1168    0.2985 C   0  0  0  0  0  0  0  0  0  0  0  0
    3.3052   -2.0227    1.7500 C   0  0  0  0  0  0  0  0  0  0  0  0
    3.5905   -0.8174    2.2746 C   0  0  0  0  0  0  0  0  0  0  0  0
    2.9749    0.2738    1.7840 O   0  0  0  0  0  0  0  0  0  0  0  0
    4.9797   -0.6353    2.6407 C   0  0  0  0  0  0  0  0  0  0  0  0
    5.9984   -1.1817    1.9323 C   0  0  0  0  0  0  0  0  0  0  0  0
    5.9034   -2.1121    0.6952 C   0  0  1  0  0  0  0  0  0  0  0  0
    7.3028   -2.1618    0.0105 C   0  0  0  0  0  0  0  0  0  0  0  0
    7.7712   -3.6257   -0.0670 C   0  0  1  0  0  0  0  0  0  0  0  0
    8.8134   -3.8588    0.8593 O   0  0  0  0  0  0  0  0  0  0  0  0
    6.5572   -4.4854    0.2925 C   0  0  0  0  0  0  0  0  0  0  0  0
    5.7440   -3.6015    1.2296 C   0  0  2  0  0  0  0  0  0  0  0  0
    4.3349   -4.1593    1.6655 C   0  0  2  0  0  0  0  0  0  0  0  0
    3.3127   -4.4986    0.5360 C   0  0  0  0  0  0  0  0  0  0  0  0
    3.7672   -3.1123    2.4616 O   0  0  0  0  0  0  0  0  0  0  0  0
    4.7487   -1.5935   -0.2876 C   0  0  1  0  0  0  0  0  0  0  0  0
    3.2229   -0.6974   -2.4520 H   0  0  0  0  0  0  0  0  0  0  0  0
    4.1742   -1.4095   -3.7520 H   0  0  0  0  0  0  0  0  0  0  0  0
    4.8761   -0.1748   -2.7169 H   0  0  0  0  0  0  0  0  0  0  0  0
    5.7012   -2.4546   -2.1287 H   0  0  0  0  0  0  0  0  0  0  0  0
    3.0111   -3.2831   -2.4664 H   0  0  0  0  0  0  0  0  0  0  0  0
    4.3310   -4.2618   -1.8856 H   0  0  0  0  0  0  0  0  0  0  0  0
    3.5198    1.0224    1.9842 H   0  0  0  0  0  0  0  0  0  0  0  0
    5.2173   -0.0103    3.4890 H   0  0  0  0  0  0  0  0  0  0  0  0
    6.9953   -0.9592    2.2728 H   0  0  0  0  0  0  0  0  0  0  0  0
    7.2757   -1.7596   -0.9930 H   0  0  0  0  0  0  0  0  0  0  0  0
    8.0568   -1.5552    0.5177 H   0  0  0  0  0  0  0  0  0  0  0  0
    8.1583   -3.8583   -1.0596 H   0  0  0  0  0  0  0  0  0  0  0  0
    8.4667   -3.7264    1.7327 H   0  0  0  0  0  0  0  0  0  0  0  0
    5.9896   -4.7015   -0.6082 H   0  0  0  0  0  0  0  0  0  0  0  0
    6.8327   -5.4426    0.7394 H   0  0  0  0  0  0  0  0  0  0  0  0
    6.3093   -3.6231    2.1596 H   0  0  0  0  0  0  0  0  0  0  0  0
    4.4627   -5.0330    2.3073 H   0  0  0  0  0  0  0  0  0  0  0  0
    2.3406   -4.7244    0.9721 H   0  0  0  0  0  0  0  0  0  0  0  0
    3.6300   -5.3667   -0.0403 H   0  0  0  0  0  0  0  0  0  0  0  0
    4.7473   -0.5027   -0.2952 H   0  0  0  0  0  0  0  0  0  0  0  0
  1  2  1  0
  1 21  1  0
  1 22  1  0
  1 23  1  0
  2 20  1  0
  2  3  1  0
  2 24  1  6
  3  4  1  0
  3 25  1  0
  3 26  1  0
  4 18  1  0
  4  5  2  0
  5 20  1  0
  5  6  1  0
  6 19  1  0
  6  7  2  0
  7  8  1  0
  7  9  1  0
  8 27  1  0
  9 10  2  0
  9 28  1  0
 10 11  1  0
 10 29  1  0
 11 16  1  0
 11 12  1  6
 11 20  1  0
 12 13  1  0
 12 30  1  0
 12 31  1  0
 13 14  1  0
 13 15  1  0
 13 32  1  6
 14 33  1  0
 15 16  1  0
 15 34  1  0
 15 35  1  0
 16 17  1  0
 16 36  1  1
 17 18  1  0
 17 19  1  0
 17 37  1  1
 18 38  1  0
 18 39  1  0
 20 40  1  6
M  END
>  <i_m_ct_stereo_status>  (50) 
1

>  <s_m_source_file>  (50) 
/var/tmp/pbs.5076255.sched01/tmpgn4o3w3f/0whq8s7pj.sdf

>  <i_m_source_file_index>  (50) 
29

>  <i_lp_mmshare_version>  (50) 
48012

>  <i_f3d_flags>  (50) 
0

>  <s_epik_input>  (50) 
W0NIXTE9W0NIXUMoW09IXSk9QyhPMilDKFtDQEBIXTNbQ0BIXShbQ0gzXSlbQ0gyXTQpPUM0W0NIMl1bQ0BIXTJbQ0BIXShbQ0BdMTM1KVtDSDJdW0NAQEhdKFtDSDJdNSlbT0hd

>  <s_epik_cmdline>  (50) 
J2VwaWtfcHl0aG9uJywgJy1waHQnLCAnMi4wJywgJy1waCcsICc3LjAnLCAnLXRuJywgJzgnLCAnLW1hJywgJzIwMCcsICctaW1hZScsICc8aW5maWxlLm1hZT4nLCAnLW9tYWUnLCAnPG91dGZpbGUubWFlPic=

>  <r_lp_tautomer_probability>  (50) 
1

>  <r_epik_Ionization_Penalty>  (50) 
1.24465e-05

>  <r_epik_Ionization_Penalty_Charging>  (50) 
0

>  <r_epik_Ionization_Penalty_Neutral>  (50) 
1.24465e-05

>  <r_epik_State_Penalty>  (50) 
-0

>  <r_epik_Charging_Adjusted_Penalty>  (50) 
0

>  <i_epik_Tot_Q>  (50) 
0

>  <i_epik_Tot_abs_Q>  (50) 
0

>  <s_lp_Force_Field>  (50) 
OPLS3e

>  <r_lp_Energy>  (50) 
104.781

>  <b_lp_Chiralities_Consistent>  (50) 
1

>  <s_lp_Variant>  (50) 
16:0-1

>  <s_i_glide_gridfile>  (50) 
pfpi4k_grid

>  <i_i_glide_lignum>  (50) 
29

>  <i_i_glide_rotatable_bonds>  (50) 
2

>  <r_i_docking_score>  (50) 
-3.70767

>  <r_i_glide_ligand_efficiency>  (50) 
-0.185384

>  <r_i_glide_ligand_efficiency_sa>  (50) 
-0.503209

>  <r_i_glide_ligand_efficiency_ln>  (50) 
-0.927908

>  <r_i_glide_gscore>  (50) 
-3.70767

>  <r_i_glide_lipo>  (50) 
-0.745247

>  <r_i_glide_hbond>  (50) 
0

>  <r_i_glide_metal>  (50) 
-0

>  <r_i_glide_rewards>  (50) 
-1.55223

>  <r_i_glide_evdw>  (50) 
-25.3883

>  <r_i_glide_ecoul>  (50) 
-0.938491

>  <r_i_glide_erotb>  (50) 
0

>  <r_i_glide_esite>  (50) 
0

>  <r_i_glide_emodel>  (50) 
-32.3942

>  <r_i_glide_energy>  (50) 
-26.3268

>  <r_i_glide_einternal>  (50) 
0.0237696

>  <r_i_glide_intrahb_reward>  (50) 
-0

>  <i_i_glide_confnum>  (50) 
2

>  <i_i_glide_posenum>  (50) 
8

>  <r_i_glide_eff_state_penalty>  (50) 
0

>  <ligand_id>  (50) 
16

>  <original_smiles>  (50) 
CC1CC2=C3C4=C(O)C=CC5(CC(O)CC5C(C2)O4)C31

>  <smiles>  (50) 
[H]OC1=C2OC3([H])C([H])([H])C4=C2C([H])(C([H])(C([H])([H])[H])C4([H])[H])C2(C([H])=C1[H])C([H])([H])C([H])(O[H])C([H])([H])C32[H]

$$$$
17:0:0
     RDKit          3D

 23 25  0  0  1  0  0  0  0  0999 V2000
   -6.1880   -4.2575   -4.3202 Cl  0  0  0  0  0  0  0  0  0  0  0  0
   -6.7467   -5.4759   -5.3875 C   0  0  0  0  0  0  0  0  0  0  0  0
   -6.1076   -6.7233   -5.4309 C   0  0  0  0  0  0  0  0  0  0  0  0
   -6.5644   -7.7042   -6.3263 C   0  0  0  0  0  0  0  0  0  0  0  0
   -7.6599   -7.4581   -7.1904 C   0  0  0  0  0  0  0  0  0  0  0  0
   -8.0978   -8.5331   -8.1011 C   0  0  0  0  0  0  0  0  0  0  0  0
   -8.3147   -8.1876   -9.3395 N   0  0  0  0  0  0  0  0  0  0  0  0
   -8.7588   -9.1308  -10.2288 C   0  0  0  0  0  0  0  0  0  0  0  0
   -8.9470  -10.4561   -9.9236 C   0  0  0  0  0  0  0  0  0  0  0  0
   -8.6814  -10.8137   -8.6360 N   0  0  0  0  0  0  0  0  0  0  0  0
   -8.7406  -12.0184   -8.0077 C   0  0  0  0  0  0  0  0  0  0  0  0
   -8.3766  -11.8805   -6.7312 N   0  0  0  0  0  0  0  0  0  0  0  0
   -8.0834  -10.5411   -6.5112 N   0  0  0  0  0  0  0  0  0  0  0  0
   -8.2516   -9.8898   -7.6672 C   0  0  0  0  0  0  0  0  0  0  0  0
   -8.3010   -6.1882   -7.1188 C   0  0  0  0  0  0  0  0  0  0  0  0
   -9.6949   -5.7770   -8.0661 Cl  0  0  0  0  0  0  0  0  0  0  0  0
   -7.8369   -5.2103   -6.2275 C   0  0  0  0  0  0  0  0  0  0  0  0
   -5.2665   -6.9281   -4.7841 H   0  0  0  0  0  0  0  0  0  0  0  0
   -6.0637   -8.6636   -6.3384 H   0  0  0  0  0  0  0  0  0  0  0  0
   -8.9706   -8.7570  -11.2235 H   0  0  0  0  0  0  0  0  0  0  0  0
   -9.2866  -11.2163  -10.6253 H   0  0  0  0  0  0  0  0  0  0  0  0
   -9.0326  -12.9458   -8.4772 H   0  0  0  0  0  0  0  0  0  0  0  0
   -8.3347   -4.2519   -6.1834 H   0  0  0  0  0  0  0  0  0  0  0  0
  1  2  1  0
  2 17  2  0
  2  3  1  0
  3  4  2  0
  3 18  1  0
  4  5  1  0
  4 19  1  0
  5  6  1  0
  5 15  2  0
  6 14  1  0
  6  7  2  0
  7  8  1  0
  8  9  2  0
  8 20  1  0
  9 10  1  0
  9 21  1  0
 10 14  1  0
 10 11  1  0
 11 12  2  0
 11 22  1  0
 12 13  1  0
 13 14  2  0
 15 16  1  0
 15 17  1  0
 17 23  1  0
M  END
>  <i_m_ct_stereo_status>  (51) 
1

>  <s_m_source_file>  (51) 
/var/tmp/pbs.5076255.sched01/tmpgn4o3w3f/0whq8s7pj.sdf

>  <i_m_source_file_index>  (51) 
30

>  <i_lp_mmshare_version>  (51) 
48012

>  <i_f3d_flags>  (51) 
0

>  <s_epik_input>  (51) 
Q2xjMVtjSF1bY0hdYyhjKENsKVtjSF0xKS1jKG5bY0hdW2NIXTIpYyhuMjMpbm5bY0hdMw==

>  <s_epik_cmdline>  (51) 
J2VwaWtfcHl0aG9uJywgJy1waHQnLCAnMi4wJywgJy1waCcsICc3LjAnLCAnLXRuJywgJzgnLCAnLW1hJywgJzIwMCcsICctaW1hZScsICc8aW5maWxlLm1hZT4nLCAnLW9tYWUnLCAnPG91dGZpbGUubWFlPic=

>  <r_lp_tautomer_probability>  (51) 
1

>  <r_epik_Ionization_Penalty>  (51) 
1.02977e-07

>  <r_epik_Ionization_Penalty_Charging>  (51) 
0

>  <r_epik_Ionization_Penalty_Neutral>  (51) 
1.02977e-07

>  <r_epik_State_Penalty>  (51) 
-0

>  <r_epik_Charging_Adjusted_Penalty>  (51) 
0

>  <i_epik_Tot_Q>  (51) 
0

>  <i_epik_Tot_abs_Q>  (51) 
0

>  <s_lp_Force_Field>  (51) 
OPLS3e

>  <r_lp_Energy>  (51) 
28.2267

>  <b_lp_Chiralities_Consistent>  (51) 
1

>  <s_lp_Variant>  (51) 
17:0-1

>  <s_i_glide_gridfile>  (51) 
pfpi4k_grid

>  <i_i_glide_lignum>  (51) 
30

>  <i_i_glide_rotatable_bonds>  (51) 
1

>  <r_i_docking_score>  (51) 
-5.47486

>  <r_i_glide_ligand_efficiency>  (51) 
-0.32205

>  <r_i_glide_ligand_efficiency_sa>  (51) 
-0.828082

>  <r_i_glide_ligand_efficiency_ln>  (51) 
-1.42827

>  <r_i_glide_gscore>  (51) 
-5.47486

>  <r_i_glide_lipo>  (51) 
-2.11569

>  <r_i_glide_hbond>  (51) 
0

>  <r_i_glide_metal>  (51) 
-0

>  <r_i_glide_rewards>  (51) 
-2.33121

>  <r_i_glide_evdw>  (51) 
-27.0856

>  <r_i_glide_ecoul>  (51) 
0.487938

>  <r_i_glide_erotb>  (51) 
0.253135

>  <r_i_glide_esite>  (51) 
0

>  <r_i_glide_emodel>  (51) 
-34.607

>  <r_i_glide_energy>  (51) 
-26.5977

>  <r_i_glide_einternal>  (51) 
0.660653

>  <r_i_glide_intrahb_reward>  (51) 
-0

>  <i_i_glide_confnum>  (51) 
4

>  <i_i_glide_posenum>  (51) 
1

>  <r_i_glide_eff_state_penalty>  (51) 
0

>  <ligand_id>  (51) 
17

>  <original_smiles>  (51) 
Clc1ccc(-c2nccn3cnnc23)c(Cl)c1

>  <smiles>  (51) 
[H]c1nc(-c2c([H])c([H])c(Cl)c([H])c2Cl)c2nnc([H])n2c1[H]

$$$$
17:0:1
     RDKit          3D

 23 25  0  0  1  0  0  0  0  0999 V2000
    2.6392    0.5482   -5.1385 Cl  0  0  0  0  0  0  0  0  0  0  0  0
    3.5466   -0.4374   -4.0484 C   0  0  0  0  0  0  0  0  0  0  0  0
    4.2145    0.1086   -2.9510 C   0  0  0  0  0  0  0  0  0  0  0  0
    4.9819   -0.6905   -2.0763 C   0  0  0  0  0  0  0  0  0  0  0  0
    5.1498   -2.0604   -2.3353 C   0  0  0  0  0  0  0  0  0  0  0  0
    6.0195   -2.8478   -1.4548 C   0  0  0  0  0  0  0  0  0  0  0  0
    7.2902   -2.5441   -1.4638 N   0  0  0  0  0  0  0  0  0  0  0  0
    8.1386   -3.2584   -0.6501 C   0  0  0  0  0  0  0  0  0  0  0  0
    7.7432   -4.2569    0.2019 C   0  0  0  0  0  0  0  0  0  0  0  0
    6.4128   -4.5349    0.2072 N   0  0  0  0  0  0  0  0  0  0  0  0
    5.6913   -5.4489    0.9002 C   0  0  0  0  0  0  0  0  0  0  0  0
    4.4068   -5.3453    0.5748 N   0  0  0  0  0  0  0  0  0  0  0  0
    4.2747   -4.3201   -0.3499 N   0  0  0  0  0  0  0  0  0  0  0  0
    5.4936   -3.8511   -0.5992 C   0  0  0  0  0  0  0  0  0  0  0  0
    4.4658   -2.6003   -3.4573 C   0  0  0  0  0  0  0  0  0  0  0  0
    4.6175   -4.2420   -3.9477 Cl  0  0  0  0  0  0  0  0  0  0  0  0
    3.6642   -1.7999   -4.2726 C   0  0  0  0  0  0  0  0  0  0  0  0
    4.1407    1.1610   -2.7818 H   0  0  0  0  0  0  0  0  0  0  0  0
    5.4892   -0.2674   -1.2111 H   0  0  0  0  0  0  0  0  0  0  0  0
    9.1756   -2.9830   -0.7197 H   0  0  0  0  0  0  0  0  0  0  0  0
    8.3980   -4.8403    0.8444 H   0  0  0  0  0  0  0  0  0  0  0  0
    6.0838   -6.1569    1.6115 H   0  0  0  0  0  0  0  0  0  0  0  0
    3.1679   -2.2472   -5.1144 H   0  0  0  0  0  0  0  0  0  0  0  0
  1  2  1  0
  2 17  2  0
  2  3  1  0
  3  4  2  0
  3 18  1  0
  4  5  1  0
  4 19  1  0
  5  6  1  0
  5 15  2  0
  6 14  1  0
  6  7  2  0
  7  8  1  0
  8  9  2  0
  8 20  1  0
  9 10  1  0
  9 21  1  0
 10 14  1  0
 10 11  1  0
 11 12  2  0
 11 22  1  0
 12 13  1  0
 13 14  2  0
 15 16  1  0
 15 17  1  0
 17 23  1  0
M  END
>  <i_m_ct_stereo_status>  (52) 
1

>  <s_m_source_file>  (52) 
/var/tmp/pbs.5076255.sched01/tmpgn4o3w3f/0whq8s7pj.sdf

>  <i_m_source_file_index>  (52) 
30

>  <i_lp_mmshare_version>  (52) 
48012

>  <i_f3d_flags>  (52) 
0

>  <s_epik_input>  (52) 
Q2xjMVtjSF1bY0hdYyhjKENsKVtjSF0xKS1jKG5bY0hdW2NIXTIpYyhuMjMpbm5bY0hdMw==

>  <s_epik_cmdline>  (52) 
J2VwaWtfcHl0aG9uJywgJy1waHQnLCAnMi4wJywgJy1waCcsICc3LjAnLCAnLXRuJywgJzgnLCAnLW1hJywgJzIwMCcsICctaW1hZScsICc8aW5maWxlLm1hZT4nLCAnLW9tYWUnLCAnPG91dGZpbGUubWFlPic=

>  <r_lp_tautomer_probability>  (52) 
1

>  <r_epik_Ionization_Penalty>  (52) 
1.02977e-07

>  <r_epik_Ionization_Penalty_Charging>  (52) 
0

>  <r_epik_Ionization_Penalty_Neutral>  (52) 
1.02977e-07

>  <r_epik_State_Penalty>  (52) 
-0

>  <r_epik_Charging_Adjusted_Penalty>  (52) 
0

>  <i_epik_Tot_Q>  (52) 
0

>  <i_epik_Tot_abs_Q>  (52) 
0

>  <s_lp_Force_Field>  (52) 
OPLS3e

>  <r_lp_Energy>  (52) 
28.2267

>  <b_lp_Chiralities_Consistent>  (52) 
1

>  <s_lp_Variant>  (52) 
17:0-1

>  <s_i_glide_gridfile>  (52) 
pfpi4k_grid

>  <i_i_glide_lignum>  (52) 
30

>  <i_i_glide_rotatable_bonds>  (52) 
1

>  <r_i_docking_score>  (52) 
-3.71617

>  <r_i_glide_ligand_efficiency>  (52) 
-0.218598

>  <r_i_glide_ligand_efficiency_sa>  (52) 
-0.562077

>  <r_i_glide_ligand_efficiency_ln>  (52) 
-0.969465

>  <r_i_glide_gscore>  (52) 
-3.71617

>  <r_i_glide_lipo>  (52) 
-0.847683

>  <r_i_glide_hbond>  (52) 
-0.16

>  <r_i_glide_metal>  (52) 
-0

>  <r_i_glide_rewards>  (52) 
-1.93578

>  <r_i_glide_evdw>  (52) 
-20.3784

>  <r_i_glide_ecoul>  (52) 
0.0434553

>  <r_i_glide_erotb>  (52) 
0.253135

>  <r_i_glide_esite>  (52) 
-0.0134353

>  <r_i_glide_emodel>  (52) 
-25.9467

>  <r_i_glide_energy>  (52) 
-20.335

>  <r_i_glide_einternal>  (52) 
0.045216

>  <r_i_glide_intrahb_reward>  (52) 
-0

>  <i_i_glide_confnum>  (52) 
3

>  <i_i_glide_posenum>  (52) 
3

>  <r_i_glide_eff_state_penalty>  (52) 
0

>  <ligand_id>  (52) 
17

>  <original_smiles>  (52) 
Clc1ccc(-c2nccn3cnnc23)c(Cl)c1

>  <smiles>  (52) 
[H]c1nc(-c2c([H])c([H])c(Cl)c([H])c2Cl)c2nnc([H])n2c1[H]

$$$$
17:0:2
     RDKit          3D

 23 25  0  0  1  0  0  0  0  0999 V2000
   -1.7876   -9.0629    2.3744 Cl  0  0  0  0  0  0  0  0  0  0  0  0
   -0.7905   -7.8005    2.9569 C   0  0  0  0  0  0  0  0  0  0  0  0
   -0.9849   -7.2977    4.2520 C   0  0  0  0  0  0  0  0  0  0  0  0
   -0.1614   -6.2625    4.7282 C   0  0  0  0  0  0  0  0  0  0  0  0
    0.8640   -5.7158    3.9196 C   0  0  0  0  0  0  0  0  0  0  0  0
    1.6792   -4.6100    4.4546 C   0  0  0  0  0  0  0  0  0  0  0  0
    2.9733   -4.7487    4.3743 N   0  0  0  0  0  0  0  0  0  0  0  0
    3.7820   -3.7354    4.8206 C   0  0  0  0  0  0  0  0  0  0  0  0
    3.3247   -2.5752    5.3917 C   0  0  0  0  0  0  0  0  0  0  0  0
    1.9715   -2.4560    5.4991 N   0  0  0  0  0  0  0  0  0  0  0  0
    1.1928   -1.4694    6.0148 C   0  0  0  0  0  0  0  0  0  0  0  0
   -0.0962   -1.8016    5.9028 N   0  0  0  0  0  0  0  0  0  0  0  0
   -0.1666   -3.0421    5.2834 N   0  0  0  0  0  0  0  0  0  0  0  0
    1.0863   -3.4483    5.0440 C   0  0  0  0  0  0  0  0  0  0  0  0
    1.0381   -6.2310    2.6033 C   0  0  0  0  0  0  0  0  0  0  0  0
    2.2078   -5.5900    1.4976 Cl  0  0  0  0  0  0  0  0  0  0  0  0
    0.2134   -7.2679    2.1347 C   0  0  0  0  0  0  0  0  0  0  0  0
   -1.7642   -7.7107    4.8764 H   0  0  0  0  0  0  0  0  0  0  0  0
   -0.3299   -5.8788    5.7255 H   0  0  0  0  0  0  0  0  0  0  0  0
    4.8454   -3.9043    4.6860 H   0  0  0  0  0  0  0  0  0  0  0  0
    3.9568   -1.7700    5.7581 H   0  0  0  0  0  0  0  0  0  0  0  0
    1.5630   -0.5544    6.4523 H   0  0  0  0  0  0  0  0  0  0  0  0
    0.3504   -7.6518    1.1342 H   0  0  0  0  0  0  0  0  0  0  0  0
  1  2  1  0
  2 17  2  0
  2  3  1  0
  3  4  2  0
  3 18  1  0
  4  5  1  0
  4 19  1  0
  5  6  1  0
  5 15  2  0
  6 14  1  0
  6  7  2  0
  7  8  1  0
  8  9  2  0
  8 20  1  0
  9 10  1  0
  9 21  1  0
 10 14  1  0
 10 11  1  0
 11 12  2  0
 11 22  1  0
 12 13  1  0
 13 14  2  0
 15 16  1  0
 15 17  1  0
 17 23  1  0
M  END
>  <i_m_ct_stereo_status>  (53) 
1

>  <s_m_source_file>  (53) 
/var/tmp/pbs.5076255.sched01/tmpgn4o3w3f/0whq8s7pj.sdf

>  <i_m_source_file_index>  (53) 
30

>  <i_lp_mmshare_version>  (53) 
48012

>  <i_f3d_flags>  (53) 
0

>  <s_epik_input>  (53) 
Q2xjMVtjSF1bY0hdYyhjKENsKVtjSF0xKS1jKG5bY0hdW2NIXTIpYyhuMjMpbm5bY0hdMw==

>  <s_epik_cmdline>  (53) 
J2VwaWtfcHl0aG9uJywgJy1waHQnLCAnMi4wJywgJy1waCcsICc3LjAnLCAnLXRuJywgJzgnLCAnLW1hJywgJzIwMCcsICctaW1hZScsICc8aW5maWxlLm1hZT4nLCAnLW9tYWUnLCAnPG91dGZpbGUubWFlPic=

>  <r_lp_tautomer_probability>  (53) 
1

>  <r_epik_Ionization_Penalty>  (53) 
1.02977e-07

>  <r_epik_Ionization_Penalty_Charging>  (53) 
0

>  <r_epik_Ionization_Penalty_Neutral>  (53) 
1.02977e-07

>  <r_epik_State_Penalty>  (53) 
-0

>  <r_epik_Charging_Adjusted_Penalty>  (53) 
0

>  <i_epik_Tot_Q>  (53) 
0

>  <i_epik_Tot_abs_Q>  (53) 
0

>  <s_lp_Force_Field>  (53) 
OPLS3e

>  <r_lp_Energy>  (53) 
28.2267

>  <b_lp_Chiralities_Consistent>  (53) 
1

>  <s_lp_Variant>  (53) 
17:0-1

>  <s_i_glide_gridfile>  (53) 
pfpi4k_grid

>  <i_i_glide_lignum>  (53) 
30

>  <i_i_glide_rotatable_bonds>  (53) 
1

>  <r_i_docking_score>  (53) 
-2.63684

>  <r_i_glide_ligand_efficiency>  (53) 
-0.155108

>  <r_i_glide_ligand_efficiency_sa>  (53) 
-0.398827

>  <r_i_glide_ligand_efficiency_ln>  (53) 
-0.687892

>  <r_i_glide_gscore>  (53) 
-2.63684

>  <r_i_glide_lipo>  (53) 
-0.306186

>  <r_i_glide_hbond>  (53) 
0

>  <r_i_glide_metal>  (53) 
-0

>  <r_i_glide_rewards>  (53) 
-1.61177

>  <r_i_glide_evdw>  (53) 
-18.714

>  <r_i_glide_ecoul>  (53) 
-0.0192714

>  <r_i_glide_erotb>  (53) 
0.253135

>  <r_i_glide_esite>  (53) 
-0.0334296

>  <r_i_glide_emodel>  (53) 
-22.6261

>  <r_i_glide_energy>  (53) 
-18.7332

>  <r_i_glide_einternal>  (53) 
0.216141

>  <r_i_glide_intrahb_reward>  (53) 
-0

>  <i_i_glide_confnum>  (53) 
1

>  <i_i_glide_posenum>  (53) 
2

>  <r_i_glide_eff_state_penalty>  (53) 
0

>  <ligand_id>  (53) 
17

>  <original_smiles>  (53) 
Clc1ccc(-c2nccn3cnnc23)c(Cl)c1

>  <smiles>  (53) 
[H]c1nc(-c2c([H])c([H])c(Cl)c([H])c2Cl)c2nnc([H])n2c1[H]

$$$$
18:0:0
     RDKit          3D

 52 56  0  0  1  0  0  0  0  0999 V2000
    1.6277   -0.1764    1.6752 C   0  0  0  0  0  0  0  0  0  0  0  0
    2.0413   -0.5202    2.8975 C   0  0  0  0  0  0  0  0  0  0  0  0
    3.4372   -1.1254    3.0278 C   0  0  0  0  0  0  0  0  0  0  0  0
    1.1782   -0.4240    4.1923 C   0  0  1  0  0  0  0  0  0  0  0  0
    0.7593   -1.7777    4.3325 O   0  0  0  0  0  0  0  0  0  0  0  0
    2.0350   -0.2807    5.5313 C   0  0  0  0  0  0  0  0  0  0  0  0
    2.8706    1.0133    5.8295 C   0  0  1  0  0  0  0  0  0  0  0  0
    2.7480    1.6658    4.5755 O   0  0  0  0  0  0  0  0  0  0  0  0
    2.0319    2.7148    5.2338 C   0  0  1  0  0  0  0  0  0  0  0  0
    2.4267    4.0353    4.5580 C   0  0  0  0  0  0  0  0  0  0  0  0
    3.5086    4.6053    4.6731 O   0  0  0  0  0  0  0  0  0  0  0  0
    1.3350    4.7031    3.7338 C   0  0  0  0  0  0  0  0  0  0  0  0
   -0.0945    4.4532    4.2728 C   0  0  1  0  0  0  0  0  0  0  0  0
   -1.0025    4.9178    3.2821 O   0  0  0  0  0  0  0  0  0  0  0  0
   -0.4792    3.0068    4.8148 C   0  0  1  0  0  0  0  0  0  0  0  0
   -1.9042    3.2272    5.4123 C   0  0  0  0  0  0  0  0  0  0  0  0
   -0.4469    1.9025    3.6786 C   0  0  1  0  0  0  0  0  0  0  0  0
    0.4188    2.2219    2.6229 O   0  0  0  0  0  0  0  0  0  0  0  0
   -0.2205    0.3755    4.0523 C   0  0  2  0  0  0  0  0  0  0  0  0
   -1.2286   -0.0171    5.1282 C   0  0  0  0  0  0  0  0  0  0  0  0
   -2.1364   -0.7931    4.8437 O   0  0  0  0  0  0  0  0  0  0  0  0
   -1.1057    0.4467    6.3844 O   0  0  0  0  0  0  0  0  0  0  0  0
   -0.1827    1.3912    6.8357 C   0  0  1  0  0  0  0  0  0  0  0  0
    0.5696    0.8465    7.9144 O   0  0  0  0  0  0  0  0  0  0  0  0
    0.5532    2.4893    5.8677 C   0  0  1  0  0  0  0  0  0  0  0  0
    1.3012    3.2609    6.9643 C   0  0  0  0  0  0  0  0  0  0  0  0
    2.5900    2.3927    6.5960 C   0  0  1  0  0  0  0  0  0  0  0  0
    3.7763    2.9936    7.0751 O   0  0  0  0  0  0  0  0  0  0  0  0
    2.2960   -0.2520    0.8269 H   0  0  0  0  0  0  0  0  0  0  0  0
    0.6359    0.1796    1.4509 H   0  0  0  0  0  0  0  0  0  0  0  0
    3.3709   -2.1301    3.4433 H   0  0  0  0  0  0  0  0  0  0  0  0
    4.0906   -0.5187    3.6509 H   0  0  0  0  0  0  0  0  0  0  0  0
    3.9057   -1.2210    2.0495 H   0  0  0  0  0  0  0  0  0  0  0  0
    0.4811   -2.0907    3.4791 H   0  0  0  0  0  0  0  0  0  0  0  0
    1.4551   -0.6361    6.3633 H   0  0  0  0  0  0  0  0  0  0  0  0
    2.7724   -1.0834    5.4903 H   0  0  0  0  0  0  0  0  0  0  0  0
    3.9173    0.7555    6.0083 H   0  0  0  0  0  0  0  0  0  0  0  0
    1.5200    5.7786    3.6937 H   0  0  0  0  0  0  0  0  0  0  0  0
    1.4506    4.3528    2.7100 H   0  0  0  0  0  0  0  0  0  0  0  0
   -0.2010    5.1350    5.1192 H   0  0  0  0  0  0  0  0  0  0  0  0
   -0.6450    4.7443    2.4017 H   0  0  0  0  0  0  0  0  0  0  0  0
   -2.4170    2.3365    5.7631 H   0  0  0  0  0  0  0  0  0  0  0  0
   -2.5814    3.6307    4.6622 H   0  0  0  0  0  0  0  0  0  0  0  0
   -1.8781    3.9332    6.2463 H   0  0  0  0  0  0  0  0  0  0  0  0
   -1.4348    1.9524    3.2213 H   0  0  0  0  0  0  0  0  0  0  0  0
    0.1183    2.9984    2.1531 H   0  0  0  0  0  0  0  0  0  0  0  0
   -0.6443   -0.1014    3.1698 H   0  0  0  0  0  0  0  0  0  0  0  0
   -0.8893    2.0079    7.3969 H   0  0  0  0  0  0  0  0  0  0  0  0
    1.3142    0.3898    7.5522 H   0  0  0  0  0  0  0  0  0  0  0  0
    1.4079    4.3447    6.8306 H   0  0  0  0  0  0  0  0  0  0  0  0
    0.9664    3.1620    7.9993 H   0  0  0  0  0  0  0  0  0  0  0  0
    4.1017    3.5487    6.3749 H   0  0  0  0  0  0  0  0  0  0  0  0
  1  2  2  0
  1 29  1  0
  1 30  1  0
  2  3  1  0
  2  4  1  0
  3 31  1  0
  3 32  1  0
  3 33  1  0
  4 19  1  0
  4  5  1  1
  4  6  1  0
  5 34  1  0
  6  7  1  0
  6 35  1  0
  6 36  1  0
  7 27  1  0
  7  8  1  0
  7 37  1  1
  8  9  1  0
  9 25  1  0
  9 27  1  0
  9 10  1  6
 10 11  2  0
 10 12  1  0
 12 13  1  0
 12 38  1  0
 12 39  1  0
 13 14  1  0
 13 15  1  0
 13 40  1  1
 14 41  1  0
 15 25  1  0
 15 16  1  1
 15 17  1  0
 16 42  1  0
 16 43  1  0
 16 44  1  0
 17 18  1  0
 17 19  1  0
 17 45  1  6
 18 46  1  0
 19 20  1  0
 19 47  1  6
 20 21  2  0
 20 22  1  0
 22 23  1  0
 23 24  1  0
 23 25  1  0
 23 48  1  1
 24 49  1  0
 25 26  1  1
 26 27  1  0
 26 50  1  0
 26 51  1  0
 27 28  1  6
 28 52  1  0
M  END
>  <i_m_ct_stereo_status>  (54) 
1

>  <s_m_source_file>  (54) 
/var/tmp/pbs.5076255.sched01/tmpgn4o3w3f/0whq8s7pj.sdf

>  <i_m_source_file_index>  (54) 
31

>  <i_lp_mmshare_version>  (54) 
48012

>  <i_f3d_flags>  (54) 
0

>  <s_epik_input>  (54) 
W0NIMl0xW0NAQF0yKFtPSF0pW0NASF0oTzMpW0NIMl1bQ0BdKFtPSF0pKEMoPVtDSDJdKVtDSDNdKVtDQEBIXShDKD1PKU9bQ0BIXTRbT0hdKVtDQEhdKFtPSF0pW0NAQF0oW0NIM10pKEMxNFtDQEBdMjM1KVtDQEhdKFtPSF0pW0NIMl1DNT1P

>  <s_epik_cmdline>  (54) 
J2VwaWtfcHl0aG9uJywgJy1waHQnLCAnMi4wJywgJy1waCcsICc3LjAnLCAnLXRuJywgJzgnLCAnLW1hJywgJzIwMCcsICctaW1hZScsICc8aW5maWxlLm1hZT4nLCAnLW9tYWUnLCAnPG91dGZpbGUubWFlPic=

>  <r_lp_tautomer_probability>  (54) 
1

>  <r_epik_Ionization_Penalty>  (54) 
5.59562e-06

>  <r_epik_Ionization_Penalty_Charging>  (54) 
0

>  <r_epik_Ionization_Penalty_Neutral>  (54) 
5.59562e-06

>  <r_epik_State_Penalty>  (54) 
-0

>  <r_epik_Charging_Adjusted_Penalty>  (54) 
0

>  <i_epik_Tot_Q>  (54) 
0

>  <i_epik_Tot_abs_Q>  (54) 
0

>  <s_epik_Chemistry_Notes>  (54) 
This compound has an ester and may undergo hydrolysis at high or low pH. This compound contains an acetal/aminal-like group ( X-CH(R)-Y where X, Y are N, S, or O) that may be acid/base labile, releasing an aldehyde.

>  <s_lp_Force_Field>  (54) 
OPLS3e

>  <r_lp_Energy>  (54) 
167.196

>  <b_lp_Chiralities_Consistent>  (54) 
1

>  <s_lp_Variant>  (54) 
18:0-1

>  <s_i_glide_gridfile>  (54) 
pfpi4k_grid

>  <i_i_glide_lignum>  (54) 
31

>  <i_i_glide_rotatable_bonds>  (54) 
6

>  <r_i_docking_score>  (54) 
-4.0063

>  <r_i_glide_ligand_efficiency>  (54) 
-0.143082

>  <r_i_glide_ligand_efficiency_sa>  (54) 
-0.434482

>  <r_i_glide_ligand_efficiency_ln>  (54) 
-0.924771

>  <r_i_glide_gscore>  (54) 
-4.0063

>  <r_i_glide_lipo>  (54) 
0

>  <r_i_glide_hbond>  (54) 
-0.042786

>  <r_i_glide_metal>  (54) 
-0

>  <r_i_glide_rewards>  (54) 
-1.20644

>  <r_i_glide_evdw>  (54) 
-23.6968

>  <r_i_glide_ecoul>  (54) 
-10.9251

>  <r_i_glide_erotb>  (54) 
0.124515

>  <r_i_glide_esite>  (54) 
-0.0579873

>  <r_i_glide_emodel>  (54) 
-48.445

>  <r_i_glide_energy>  (54) 
-34.6218

>  <r_i_glide_einternal>  (54) 
2.08053

>  <r_i_glide_intrahb_reward>  (54) 
-0.5

>  <i_i_glide_confnum>  (54) 
5

>  <i_i_glide_posenum>  (54) 
30

>  <r_i_glide_eff_state_penalty>  (54) 
0

>  <ligand_id>  (54) 
18

>  <original_smiles>  (54) 
C=C(C)C1(O)CC2OC34C(=O)CC(O)C5(C)C(O)C1C(=O)OC(O)C53CC24O

>  <smiles>  (54) 
[H]OC1([H])OC(=O)C2([H])C([H])(O[H])C3(C([H])([H])[H])C([H])(O[H])C([H])([H])C(=O)C45OC([H])(C([H])([H])C2(O[H])C(=C([H])[H])C([H])([H])[H])C4(O[H])C([H])([H])C153

$$$$
18:0:1
     RDKit          3D

 52 56  0  0  1  0  0  0  0  0999 V2000
    1.6413   -0.2142    1.6764 C   0  0  0  0  0  0  0  0  0  0  0  0
    2.0502   -0.5735    2.9014 C   0  0  0  0  0  0  0  0  0  0  0  0
    3.4416   -1.1852    3.0221 C   0  0  0  0  0  0  0  0  0  0  0  0
    1.1900   -0.4806    4.1940 C   0  0  1  0  0  0  0  0  0  0  0  0
    0.7881   -1.8344    4.3599 O   0  0  0  0  0  0  0  0  0  0  0  0
    2.0494   -0.3234    5.5303 C   0  0  0  0  0  0  0  0  0  0  0  0
    2.8762    0.9741    5.8293 C   0  0  1  0  0  0  0  0  0  0  0  0
    2.7473    1.6290    4.5772 O   0  0  0  0  0  0  0  0  0  0  0  0
    2.0357    2.6729    5.2317 C   0  0  1  0  0  0  0  0  0  0  0  0
    2.4216    3.9900    4.5533 C   0  0  0  0  0  0  0  0  0  0  0  0
    3.5076    4.5636    4.6600 O   0  0  0  0  0  0  0  0  0  0  0  0
    1.3307    4.6510    3.7312 C   0  0  0  0  0  0  0  0  0  0  0  0
   -0.0976    4.3959    4.2746 C   0  0  1  0  0  0  0  0  0  0  0  0
   -1.0029    4.8677    3.2791 O   0  0  0  0  0  0  0  0  0  0  0  0
   -0.4746    2.9520    4.8174 C   0  0  1  0  0  0  0  0  0  0  0  0
   -1.9018    3.1712    5.4092 C   0  0  0  0  0  0  0  0  0  0  0  0
   -0.4476    1.8478    3.6782 C   0  0  1  0  0  0  0  0  0  0  0  0
    0.4147    2.1785    2.6212 O   0  0  0  0  0  0  0  0  0  0  0  0
   -0.2121    0.3170    4.0500 C   0  0  2  0  0  0  0  0  0  0  0  0
   -1.2219   -0.0739    5.1283 C   0  0  0  0  0  0  0  0  0  0  0  0
   -2.1409   -0.8370    4.8469 O   0  0  0  0  0  0  0  0  0  0  0  0
   -1.0935    0.3878    6.3820 O   0  0  0  0  0  0  0  0  0  0  0  0
   -0.1719    1.3382    6.8364 C   0  0  1  0  0  0  0  0  0  0  0  0
    0.5808    0.8021    7.9129 O   0  0  0  0  0  0  0  0  0  0  0  0
    0.5527    2.4409    5.8650 C   0  0  1  0  0  0  0  0  0  0  0  0
    1.3051    3.2112    6.9645 C   0  0  0  0  0  0  0  0  0  0  0  0
    2.5961    2.3538    6.6000 C   0  0  1  0  0  0  0  0  0  0  0  0
    3.7773    2.9477    7.0853 O   0  0  0  0  0  0  0  0  0  0  0  0
    2.3066   -0.2810    0.8262 H   0  0  0  0  0  0  0  0  0  0  0  0
    0.6471    0.1433    1.4540 H   0  0  0  0  0  0  0  0  0  0  0  0
    3.3779   -2.1946    3.4274 H   0  0  0  0  0  0  0  0  0  0  0  0
    4.1033   -0.5860    3.6464 H   0  0  0  0  0  0  0  0  0  0  0  0
    3.9070   -1.2766    2.0393 H   0  0  0  0  0  0  0  0  0  0  0  0
    1.5616   -2.3765    4.2927 H   0  0  0  0  0  0  0  0  0  0  0  0
    1.4703   -0.6776    6.3694 H   0  0  0  0  0  0  0  0  0  0  0  0
    2.7958   -1.1215    5.5020 H   0  0  0  0  0  0  0  0  0  0  0  0
    3.9242    0.7218    6.0000 H   0  0  0  0  0  0  0  0  0  0  0  0
    1.5141    5.7272    3.6776 H   0  0  0  0  0  0  0  0  0  0  0  0
    1.4476    4.3058    2.7049 H   0  0  0  0  0  0  0  0  0  0  0  0
   -0.2007    5.0856    5.1141 H   0  0  0  0  0  0  0  0  0  0  0  0
   -0.6479    4.7009    2.4040 H   0  0  0  0  0  0  0  0  0  0  0  0
   -2.4126    2.2791    5.7618 H   0  0  0  0  0  0  0  0  0  0  0  0
   -2.5798    3.5734    4.6605 H   0  0  0  0  0  0  0  0  0  0  0  0
   -1.8792    3.8803    6.2407 H   0  0  0  0  0  0  0  0  0  0  0  0
   -1.4394    1.8898    3.2237 H   0  0  0  0  0  0  0  0  0  0  0  0
    0.1090    2.9628    2.1712 H   0  0  0  0  0  0  0  0  0  0  0  0
   -0.6328   -0.1766    3.1747 H   0  0  0  0  0  0  0  0  0  0  0  0
   -0.8912    1.9528    7.3923 H   0  0  0  0  0  0  0  0  0  0  0  0
    1.3186    0.3266    7.5578 H   0  0  0  0  0  0  0  0  0  0  0  0
    1.4018    4.2963    6.8277 H   0  0  0  0  0  0  0  0  0  0  0  0
    0.9654    3.1097    7.9938 H   0  0  0  0  0  0  0  0  0  0  0  0
    4.1115    3.5057    6.3970 H   0  0  0  0  0  0  0  0  0  0  0  0
  1  2  2  0
  1 29  1  0
  1 30  1  0
  2  3  1  0
  2  4  1  0
  3 31  1  0
  3 32  1  0
  3 33  1  0
  4 19  1  0
  4  5  1  1
  4  6  1  0
  5 34  1  0
  6  7  1  0
  6 35  1  0
  6 36  1  0
  7 27  1  0
  7  8  1  0
  7 37  1  1
  8  9  1  0
  9 25  1  0
  9 27  1  0
  9 10  1  6
 10 11  2  0
 10 12  1  0
 12 13  1  0
 12 38  1  0
 12 39  1  0
 13 14  1  0
 13 15  1  0
 13 40  1  1
 14 41  1  0
 15 25  1  0
 15 16  1  1
 15 17  1  0
 16 42  1  0
 16 43  1  0
 16 44  1  0
 17 18  1  0
 17 19  1  0
 17 45  1  6
 18 46  1  0
 19 20  1  0
 19 47  1  6
 20 21  2  0
 20 22  1  0
 22 23  1  0
 23 24  1  0
 23 25  1  0
 23 48  1  1
 24 49  1  0
 25 26  1  1
 26 27  1  0
 26 50  1  0
 26 51  1  0
 27 28  1  6
 28 52  1  0
M  END
>  <i_m_ct_stereo_status>  (55) 
1

>  <s_m_source_file>  (55) 
/var/tmp/pbs.5076255.sched01/tmpgn4o3w3f/0whq8s7pj.sdf

>  <i_m_source_file_index>  (55) 
31

>  <i_lp_mmshare_version>  (55) 
48012

>  <i_f3d_flags>  (55) 
0

>  <s_epik_input>  (55) 
W0NIMl0xW0NAQF0yKFtPSF0pW0NASF0oTzMpW0NIMl1bQ0BdKFtPSF0pKEMoPVtDSDJdKVtDSDNdKVtDQEBIXShDKD1PKU9bQ0BIXTRbT0hdKVtDQEhdKFtPSF0pW0NAQF0oW0NIM10pKEMxNFtDQEBdMjM1KVtDQEhdKFtPSF0pW0NIMl1DNT1P

>  <s_epik_cmdline>  (55) 
J2VwaWtfcHl0aG9uJywgJy1waHQnLCAnMi4wJywgJy1waCcsICc3LjAnLCAnLXRuJywgJzgnLCAnLW1hJywgJzIwMCcsICctaW1hZScsICc8aW5maWxlLm1hZT4nLCAnLW9tYWUnLCAnPG91dGZpbGUubWFlPic=

>  <r_lp_tautomer_probability>  (55) 
1

>  <r_epik_Ionization_Penalty>  (55) 
5.59562e-06

>  <r_epik_Ionization_Penalty_Charging>  (55) 
0

>  <r_epik_Ionization_Penalty_Neutral>  (55) 
5.59562e-06

>  <r_epik_State_Penalty>  (55) 
-0

>  <r_epik_Charging_Adjusted_Penalty>  (55) 
0

>  <i_epik_Tot_Q>  (55) 
0

>  <i_epik_Tot_abs_Q>  (55) 
0

>  <s_epik_Chemistry_Notes>  (55) 
This compound has an ester and may undergo hydrolysis at high or low pH. This compound contains an acetal/aminal-like group ( X-CH(R)-Y where X, Y are N, S, or O) that may be acid/base labile, releasing an aldehyde.

>  <s_lp_Force_Field>  (55) 
OPLS3e

>  <r_lp_Energy>  (55) 
167.196

>  <b_lp_Chiralities_Consistent>  (55) 
1

>  <s_lp_Variant>  (55) 
18:0-1

>  <s_i_glide_gridfile>  (55) 
pfpi4k_grid

>  <i_i_glide_lignum>  (55) 
31

>  <i_i_glide_rotatable_bonds>  (55) 
6

>  <r_i_docking_score>  (55) 
-3.63564

>  <r_i_glide_ligand_efficiency>  (55) 
-0.129844

>  <r_i_glide_ligand_efficiency_sa>  (55) 
-0.394283

>  <r_i_glide_ligand_efficiency_ln>  (55) 
-0.839212

>  <r_i_glide_gscore>  (55) 
-3.63564

>  <r_i_glide_lipo>  (55) 
0

>  <r_i_glide_hbond>  (55) 
-0.0488092

>  <r_i_glide_metal>  (55) 
-0

>  <r_i_glide_rewards>  (55) 
-1.20644

>  <r_i_glide_evdw>  (55) 
-23.7761

>  <r_i_glide_ecoul>  (55) 
-8.37782

>  <r_i_glide_erotb>  (55) 
0.124515

>  <r_i_glide_esite>  (55) 
-0.0594256

>  <r_i_glide_emodel>  (55) 
-45.0757

>  <r_i_glide_energy>  (55) 
-32.1539

>  <r_i_glide_einternal>  (55) 
1.99709

>  <r_i_glide_intrahb_reward>  (55) 
-0.5

>  <i_i_glide_confnum>  (55) 
2

>  <i_i_glide_posenum>  (55) 
16

>  <r_i_glide_eff_state_penalty>  (55) 
0

>  <ligand_id>  (55) 
18

>  <original_smiles>  (55) 
C=C(C)C1(O)CC2OC34C(=O)CC(O)C5(C)C(O)C1C(=O)OC(O)C53CC24O

>  <smiles>  (55) 
[H]OC1([H])OC(=O)C2([H])C([H])(O[H])C3(C([H])([H])[H])C([H])(O[H])C([H])([H])C(=O)C45OC([H])(C([H])([H])C2(O[H])C(=C([H])[H])C([H])([H])[H])C4(O[H])C([H])([H])C153

$$$$
18:0:2
     RDKit          3D

 52 56  0  0  1  0  0  0  0  0999 V2000
   -1.6262    1.5119    1.7285 C   0  0  0  0  0  0  0  0  0  0  0  0
   -1.5522    2.3115    2.8001 C   0  0  0  0  0  0  0  0  0  0  0  0
   -2.8624    2.9468    3.2783 C   0  0  0  0  0  0  0  0  0  0  0  0
   -0.2514    2.7486    3.5392 C   0  0  1  0  0  0  0  0  0  0  0  0
   -0.2483    4.1569    3.3417 O   0  0  0  0  0  0  0  0  0  0  0  0
   -0.3904    2.7819    5.1317 C   0  0  0  0  0  0  0  0  0  0  0  0
   -0.5645    1.4659    5.9572 C   0  0  1  0  0  0  0  0  0  0  0  0
   -0.7584    0.5380    4.9028 O   0  0  0  0  0  0  0  0  0  0  0  0
    0.4515   -0.1112    5.2938 C   0  0  1  0  0  0  0  0  0  0  0  0
    0.2504   -1.6197    5.0684 C   0  0  0  0  0  0  0  0  0  0  0  0
   -0.5066   -2.3673    5.6882 O   0  0  0  0  0  0  0  0  0  0  0  0
    1.0773   -2.2257    3.9535 C   0  0  0  0  0  0  0  0  0  0  0  0
    2.4482   -1.5352    3.7426 C   0  0  1  0  0  0  0  0  0  0  0  0
    2.9473   -2.0251    2.5038 O   0  0  0  0  0  0  0  0  0  0  0  0
    2.5400    0.0478    3.8262 C   0  0  1  0  0  0  0  0  0  0  0  0
    4.0707    0.3071    3.7091 C   0  0  0  0  0  0  0  0  0  0  0  0
    1.7330    0.7720    2.6679 C   0  0  1  0  0  0  0  0  0  0  0  0
    0.8265   -0.1176    2.0759 O   0  0  0  0  0  0  0  0  0  0  0  0
    1.1459    2.2469    2.8817 C   0  0  2  0  0  0  0  0  0  0  0  0
    2.3065    3.1364    3.2960 C   0  0  0  0  0  0  0  0  0  0  0  0
    2.7037    3.9947    2.5011 O   0  0  0  0  0  0  0  0  0  0  0  0
    2.8712    3.0132    4.5062 O   0  0  0  0  0  0  0  0  0  0  0  0
    2.5887    2.0329    5.4716 C   0  0  1  0  0  0  0  0  0  0  0  0
    2.1841    2.6605    6.6842 O   0  0  0  0  0  0  0  0  0  0  0  0
    1.9109    0.5915    5.1273 C   0  0  1  0  0  0  0  0  0  0  0  0
    1.9472    0.0055    6.5451 C   0  0  0  0  0  0  0  0  0  0  0  0
    0.4289    0.4448    6.6972 C   0  0  1  0  0  0  0  0  0  0  0  0
   -0.1848   -0.2383    7.7663 O   0  0  0  0  0  0  0  0  0  0  0  0
   -2.5807    1.2291    1.3128 H   0  0  0  0  0  0  0  0  0  0  0  0
   -0.7752    1.1678    1.2049 H   0  0  0  0  0  0  0  0  0  0  0  0
   -2.8170    4.0246    3.1869 H   0  0  0  0  0  0  0  0  0  0  0  0
   -3.1262    2.6602    4.2965 H   0  0  0  0  0  0  0  0  0  0  0  0
   -3.6696    2.6297    2.6207 H   0  0  0  0  0  0  0  0  0  0  0  0
   -0.1720    4.3154    2.3873 H   0  0  0  0  0  0  0  0  0  0  0  0
    0.3411    3.4474    5.5630 H   0  0  0  0  0  0  0  0  0  0  0  0
   -1.2900    3.3668    5.3435 H   0  0  0  0  0  0  0  0  0  0  0  0
   -1.4668    1.5177    6.5599 H   0  0  0  0  0  0  0  0  0  0  0  0
    1.2215   -3.2925    4.1286 H   0  0  0  0  0  0  0  0  0  0  0  0
    0.4521   -2.2131    3.0631 H   0  0  0  0  0  0  0  0  0  0  0  0
    3.0967   -1.9563    4.5097 H   0  0  0  0  0  0  0  0  0  0  0  0
    2.4276   -1.6454    1.8051 H   0  0  0  0  0  0  0  0  0  0  0  0
    4.3577    1.3505    3.6694 H   0  0  0  0  0  0  0  0  0  0  0  0
    4.4642   -0.1088    2.7851 H   0  0  0  0  0  0  0  0  0  0  0  0
    4.6148   -0.1497    4.5352 H   0  0  0  0  0  0  0  0  0  0  0  0
    2.4602    0.8948    1.8586 H   0  0  0  0  0  0  0  0  0  0  0  0
    0.6468    0.1346    1.1769 H   0  0  0  0  0  0  0  0  0  0  0  0
    0.9954    2.5484    1.8464 H   0  0  0  0  0  0  0  0  0  0  0  0
    3.6297    1.7685    5.7137 H   0  0  0  0  0  0  0  0  0  0  0  0
    2.8655    3.2559    6.9580 H   0  0  0  0  0  0  0  0  0  0  0  0
    2.1449   -1.0696    6.6219 H   0  0  0  0  0  0  0  0  0  0  0  0
    2.6270    0.4494    7.2706 H   0  0  0  0  0  0  0  0  0  0  0  0
    0.0868    0.2148    8.5540 H   0  0  0  0  0  0  0  0  0  0  0  0
  1  2  2  0
  1 29  1  0
  1 30  1  0
  2  3  1  0
  2  4  1  0
  3 31  1  0
  3 32  1  0
  3 33  1  0
  4 19  1  0
  4  5  1  6
  4  6  1  0
  5 34  1  0
  6  7  1  0
  6 35  1  0
  6 36  1  0
  7 27  1  0
  7  8  1  0
  7 37  1  1
  8  9  1  0
  9 25  1  0
  9 27  1  0
  9 10  1  1
 10 11  2  0
 10 12  1  0
 12 13  1  0
 12 38  1  0
 12 39  1  0
 13 14  1  0
 13 15  1  0
 13 40  1  1
 14 41  1  0
 15 25  1  0
 15 16  1  1
 15 17  1  0
 16 42  1  0
 16 43  1  0
 16 44  1  0
 17 18  1  0
 17 19  1  0
 17 45  1  6
 18 46  1  0
 19 20  1  0
 19 47  1  6
 20 21  2  0
 20 22  1  0
 22 23  1  0
 23 24  1  0
 23 25  1  0
 23 48  1  1
 24 49  1  0
 25 26  1  1
 26 27  1  0
 26 50  1  0
 26 51  1  0
 27 28  1  1
 28 52  1  0
M  END
>  <i_m_ct_stereo_status>  (56) 
1

>  <s_m_source_file>  (56) 
/var/tmp/pbs.5076255.sched01/tmpgn4o3w3f/0whq8s7pj.sdf

>  <i_m_source_file_index>  (56) 
31

>  <i_lp_mmshare_version>  (56) 
48012

>  <i_f3d_flags>  (56) 
0

>  <s_epik_input>  (56) 
W0NIMl0xW0NAQF0yKFtPSF0pW0NASF0oTzMpW0NIMl1bQ0BdKFtPSF0pKEMoPVtDSDJdKVtDSDNdKVtDQEBIXShDKD1PKU9bQ0BIXTRbT0hdKVtDQEhdKFtPSF0pW0NAQF0oW0NIM10pKEMxNFtDQEBdMjM1KVtDQEhdKFtPSF0pW0NIMl1DNT1P

>  <s_epik_cmdline>  (56) 
J2VwaWtfcHl0aG9uJywgJy1waHQnLCAnMi4wJywgJy1waCcsICc3LjAnLCAnLXRuJywgJzgnLCAnLW1hJywgJzIwMCcsICctaW1hZScsICc8aW5maWxlLm1hZT4nLCAnLW9tYWUnLCAnPG91dGZpbGUubWFlPic=

>  <r_lp_tautomer_probability>  (56) 
1

>  <r_epik_Ionization_Penalty>  (56) 
5.59562e-06

>  <r_epik_Ionization_Penalty_Charging>  (56) 
0

>  <r_epik_Ionization_Penalty_Neutral>  (56) 
5.59562e-06

>  <r_epik_State_Penalty>  (56) 
-0

>  <r_epik_Charging_Adjusted_Penalty>  (56) 
0

>  <i_epik_Tot_Q>  (56) 
0

>  <i_epik_Tot_abs_Q>  (56) 
0

>  <s_epik_Chemistry_Notes>  (56) 
This compound has an ester and may undergo hydrolysis at high or low pH. This compound contains an acetal/aminal-like group ( X-CH(R)-Y where X, Y are N, S, or O) that may be acid/base labile, releasing an aldehyde.

>  <s_lp_Force_Field>  (56) 
OPLS3e

>  <r_lp_Energy>  (56) 
167.196

>  <b_lp_Chiralities_Consistent>  (56) 
1

>  <s_lp_Variant>  (56) 
18:0-1

>  <s_i_glide_gridfile>  (56) 
pfpi4k_grid

>  <i_i_glide_lignum>  (56) 
31

>  <i_i_glide_rotatable_bonds>  (56) 
6

>  <r_i_docking_score>  (56) 
-3.49974

>  <r_i_glide_ligand_efficiency>  (56) 
-0.124991

>  <r_i_glide_ligand_efficiency_sa>  (56) 
-0.379545

>  <r_i_glide_ligand_efficiency_ln>  (56) 
-0.807843

>  <r_i_glide_gscore>  (56) 
-3.49974

>  <r_i_glide_lipo>  (56) 
-0.0265539

>  <r_i_glide_hbond>  (56) 
0

>  <r_i_glide_metal>  (56) 
-0

>  <r_i_glide_rewards>  (56) 
-1.20644

>  <r_i_glide_evdw>  (56) 
-21.3011

>  <r_i_glide_ecoul>  (56) 
-8.55798

>  <r_i_glide_erotb>  (56) 
0.124515

>  <r_i_glide_esite>  (56) 
-0.0425049

>  <r_i_glide_emodel>  (56) 
-40.4136

>  <r_i_glide_energy>  (56) 
-29.8591

>  <r_i_glide_einternal>  (56) 
4.73569

>  <r_i_glide_intrahb_reward>  (56) 
-0.5

>  <i_i_glide_confnum>  (56) 
2

>  <i_i_glide_posenum>  (56) 
5

>  <r_i_glide_eff_state_penalty>  (56) 
0

>  <ligand_id>  (56) 
18

>  <original_smiles>  (56) 
C=C(C)C1(O)CC2OC34C(=O)CC(O)C5(C)C(O)C1C(=O)OC(O)C53CC24O

>  <smiles>  (56) 
[H]OC1([H])OC(=O)C2([H])C([H])(O[H])C3(C([H])([H])[H])C([H])(O[H])C([H])([H])C(=O)C45OC([H])(C([H])([H])C2(O[H])C(=C([H])[H])C([H])([H])[H])C4(O[H])C([H])([H])C153

$$$$
18:1:0
     RDKit          3D

 52 56  0  0  1  0  0  0  0  0999 V2000
    2.2169   -3.8485   -3.3992 C   0  0  0  0  0  0  0  0  0  0  0  0
    3.2333   -3.1113   -2.9626 C   0  0  0  0  0  0  0  0  0  0  0  0
    4.1065   -2.5003   -4.0225 C   0  0  0  0  0  0  0  0  0  0  0  0
    3.4532   -2.8182   -1.4718 C   0  0  1  0  0  0  0  0  0  0  0  0
    3.0348   -1.4790   -1.4873 O   0  0  0  0  0  0  0  0  0  0  0  0
    2.4861   -3.7287   -0.5302 C   0  0  0  0  0  0  0  0  0  0  0  0
    2.5798   -3.9974    1.0399 C   0  0  1  0  0  0  0  0  0  0  0  0
    3.6488   -4.8768    1.4012 O   0  0  0  0  0  0  0  0  0  0  0  0
    4.2366   -3.8720    2.3108 C   0  0  1  0  0  0  0  0  0  0  0  0
    4.7724   -4.5797    3.4791 C   0  0  0  0  0  0  0  0  0  0  0  0
    4.4089   -4.5630    4.6451 O   0  0  0  0  0  0  0  0  0  0  0  0
    6.0390   -5.3499    3.0797 C   0  0  0  0  0  0  0  0  0  0  0  0
    6.2909   -5.4702    1.5507 C   0  0  1  0  0  0  0  0  0  0  0  0
    5.5926   -6.6200    1.1262 O   0  0  0  0  0  0  0  0  0  0  0  0
    6.1382   -4.0786    0.7455 C   0  0  1  0  0  0  0  0  0  0  0  0
    7.6842   -3.7894    0.5359 C   0  0  0  0  0  0  0  0  0  0  0  0
    5.6829   -4.1390   -0.7014 C   0  0  1  0  0  0  0  0  0  0  0  0
    4.9543   -5.2746   -1.0407 O   0  0  0  0  0  0  0  0  0  0  0  0
    4.9920   -2.8442   -1.1164 C   0  0  2  0  0  0  0  0  0  0  0  0
    5.6980   -1.4918   -0.7825 C   0  0  0  0  0  0  0  0  0  0  0  0
    5.7191   -0.6975   -1.7132 O   0  0  0  0  0  0  0  0  0  0  0  0
    6.2422   -1.1054    0.5002 O   0  0  0  0  0  0  0  0  0  0  0  0
    6.1686   -1.8154    1.7315 C   0  0  1  0  0  0  0  0  0  0  0  0
    5.9432   -0.9745    2.8506 O   0  0  0  0  0  0  0  0  0  0  0  0
    5.2367   -2.9666    1.5529 C   0  0  2  0  0  0  0  0  0  0  0  0
    3.8930   -2.0264    1.5452 C   0  0  0  0  0  0  0  0  0  0  0  0
    3.0144   -3.0247    2.0925 C   0  0  1  0  0  0  0  0  0  0  0  0
    2.1686   -2.6815    3.1607 O   0  0  0  0  0  0  0  0  0  0  0  0
    2.0354   -4.0705   -4.4522 H   0  0  0  0  0  0  0  0  0  0  0  0
    1.5329   -4.2583   -2.7067 H   0  0  0  0  0  0  0  0  0  0  0  0
    4.2991   -1.4693   -3.8163 H   0  0  0  0  0  0  0  0  0  0  0  0
    3.5537   -2.5499   -4.9591 H   0  0  0  0  0  0  0  0  0  0  0  0
    5.0090   -3.1023   -4.1244 H   0  0  0  0  0  0  0  0  0  0  0  0
    2.0754   -1.3923   -1.2987 H   0  0  0  0  0  0  0  0  0  0  0  0
    1.5049   -3.3292   -0.7302 H   0  0  0  0  0  0  0  0  0  0  0  0
    2.4330   -4.7287   -0.9488 H   0  0  0  0  0  0  0  0  0  0  0  0
    1.6789   -4.4489    1.4295 H   0  0  0  0  0  0  0  0  0  0  0  0
    6.8818   -4.7927    3.4534 H   0  0  0  0  0  0  0  0  0  0  0  0
    6.1143   -6.3188    3.5797 H   0  0  0  0  0  0  0  0  0  0  0  0
    7.3113   -5.8431    1.4360 H   0  0  0  0  0  0  0  0  0  0  0  0
    5.5165   -6.5610    0.1780 H   0  0  0  0  0  0  0  0  0  0  0  0
    7.9339   -2.8591    0.0126 H   0  0  0  0  0  0  0  0  0  0  0  0
    8.1487   -4.5683   -0.0728 H   0  0  0  0  0  0  0  0  0  0  0  0
    8.2399   -3.8121    1.4755 H   0  0  0  0  0  0  0  0  0  0  0  0
    6.5349   -4.1724   -1.3813 H   0  0  0  0  0  0  0  0  0  0  0  0
    4.2811   -5.0241   -1.6565 H   0  0  0  0  0  0  0  0  0  0  0  0
    5.4439   -2.8259   -2.0879 H   0  0  0  0  0  0  0  0  0  0  0  0
    7.1263   -2.1778    1.9340 H   0  0  0  0  0  0  0  0  0  0  0  0
    5.0347   -0.6845    2.8230 H   0  0  0  0  0  0  0  0  0  0  0  0
    3.7896   -1.1880    2.2479 H   0  0  0  0  0  0  0  0  0  0  0  0
    3.5107   -1.5892    0.6644 H   0  0  0  0  0  0  0  0  0  0  0  0
    1.6026   -2.0054    2.8297 H   0  0  0  0  0  0  0  0  0  0  0  0
  1  2  2  0
  1 29  1  0
  1 30  1  0
  2  3  1  0
  2  4  1  0
  3 31  1  0
  3 32  1  0
  3 33  1  0
  4 19  1  0
  4  5  1  6
  4  6  1  0
  5 34  1  0
  6  7  1  0
  6 35  1  0
  6 36  1  0
  7 27  1  0
  7  8  1  0
  7 37  1  1
  8  9  1  0
  9 25  1  0
  9 27  1  0
  9 10  1  1
 10 11  2  0
 10 12  1  0
 12 13  1  0
 12 38  1  0
 12 39  1  0
 13 14  1  0
 13 15  1  0
 13 40  1  1
 14 41  1  0
 15 25  1  0
 15 16  1  6
 15 17  1  0
 16 42  1  0
 16 43  1  0
 16 44  1  0
 17 18  1  0
 17 19  1  0
 17 45  1  6
 18 46  1  0
 19 20  1  0
 19 47  1  6
 20 21  2  0
 20 22  1  0
 22 23  1  0
 23 24  1  0
 23 25  1  0
 23 48  1  1
 24 49  1  0
 25 26  1  6
 26 27  1  0
 26 50  1  0
 26 51  1  0
 27 28  1  1
 28 52  1  0
M  END
>  <i_m_ct_stereo_status>  (57) 
1

>  <s_m_source_file>  (57) 
/var/tmp/pbs.5076255.sched01/tmpgn4o3w3f/0whq8s7pj.sdf

>  <i_m_source_file_index>  (57) 
32

>  <i_lp_mmshare_version>  (57) 
48012

>  <i_f3d_flags>  (57) 
0

>  <s_epik_input>  (57) 
W0NIMl0xW0NAQF0yKFtPSF0pW0NASF0oTzMpW0NIMl1bQ0BdKFtPSF0pKEMoPVtDSDJdKVtDSDNdKVtDQEBIXShDKD1PKU9bQ0BIXTRbT0hdKVtDQEhdKFtPSF0pW0NAQF0oW0NIM10pKEMxNFtDQEBdMjM1KVtDQEhdKFtPSF0pW0NIMl1DNT1P

>  <s_epik_cmdline>  (57) 
J2VwaWtfcHl0aG9uJywgJy1waHQnLCAnMi4wJywgJy1waCcsICc3LjAnLCAnLXRuJywgJzgnLCAnLW1hJywgJzIwMCcsICctaW1hZScsICc8aW5maWxlLm1hZT4nLCAnLW9tYWUnLCAnPG91dGZpbGUubWFlPic=

>  <r_lp_tautomer_probability>  (57) 
1

>  <r_epik_Ionization_Penalty>  (57) 
5.59562e-06

>  <r_epik_Ionization_Penalty_Charging>  (57) 
0

>  <r_epik_Ionization_Penalty_Neutral>  (57) 
5.59562e-06

>  <r_epik_State_Penalty>  (57) 
-0

>  <r_epik_Charging_Adjusted_Penalty>  (57) 
0

>  <i_epik_Tot_Q>  (57) 
0

>  <i_epik_Tot_abs_Q>  (57) 
0

>  <s_epik_Chemistry_Notes>  (57) 
This compound has an ester and may undergo hydrolysis at high or low pH. This compound contains an acetal/aminal-like group ( X-CH(R)-Y where X, Y are N, S, or O) that may be acid/base labile, releasing an aldehyde.

>  <s_lp_Force_Field>  (57) 
OPLS3e

>  <r_lp_Energy>  (57) 
197.356

>  <b_lp_Chiralities_Consistent>  (57) 
1

>  <s_lp_Variant>  (57) 
18:0-2

>  <s_i_glide_gridfile>  (57) 
pfpi4k_grid

>  <i_i_glide_lignum>  (57) 
32

>  <i_i_glide_rotatable_bonds>  (57) 
6

>  <r_i_docking_score>  (57) 
-3.66499

>  <r_i_glide_ligand_efficiency>  (57) 
-0.130892

>  <r_i_glide_ligand_efficiency_sa>  (57) 
-0.397466

>  <r_i_glide_ligand_efficiency_ln>  (57) 
-0.845986

>  <r_i_glide_gscore>  (57) 
-3.66499

>  <r_i_glide_lipo>  (57) 
-0.527741

>  <r_i_glide_hbond>  (57) 
-0.029173

>  <r_i_glide_metal>  (57) 
-0

>  <r_i_glide_rewards>  (57) 
-1.39833

>  <r_i_glide_evdw>  (57) 
-1.42503

>  <r_i_glide_ecoul>  (57) 
-11.3857

>  <r_i_glide_erotb>  (57) 
0.124515

>  <r_i_glide_esite>  (57) 
-0.0551538

>  <r_i_glide_emodel>  (57) 
-15.7493

>  <r_i_glide_energy>  (57) 
-12.8107

>  <r_i_glide_einternal>  (57) 
3.31247

>  <r_i_glide_intrahb_reward>  (57) 
-0.5

>  <i_i_glide_confnum>  (57) 
5

>  <i_i_glide_posenum>  (57) 
34

>  <r_i_glide_eff_state_penalty>  (57) 
0

>  <ligand_id>  (57) 
18

>  <original_smiles>  (57) 
C=C(C)C1(O)CC2OC34C(=O)CC(O)C5(C)C(O)C1C(=O)OC(O)C53CC24O

>  <smiles>  (57) 
[H]OC1([H])OC(=O)C2([H])C([H])(O[H])C3(C([H])([H])[H])C([H])(O[H])C([H])([H])C(=O)C45OC([H])(C([H])([H])C2(O[H])C(=C([H])[H])C([H])([H])[H])C4(O[H])C([H])([H])C153

$$$$
18:1:1
     RDKit          3D

 52 56  0  0  1  0  0  0  0  0999 V2000
    4.6015   -4.4266   -3.9376 C   0  0  0  0  0  0  0  0  0  0  0  0
    3.7433   -3.6671   -3.2515 C   0  0  0  0  0  0  0  0  0  0  0  0
    2.3723   -3.4481   -3.8820 C   0  0  0  0  0  0  0  0  0  0  0  0
    4.0138   -2.9435   -1.8978 C   0  0  1  0  0  0  0  0  0  0  0  0
    4.1279   -1.5924   -2.3439 O   0  0  0  0  0  0  0  0  0  0  0  0
    2.6899   -3.0699   -1.0040 C   0  0  0  0  0  0  0  0  0  0  0  0
    2.4442   -2.7380    0.5487 C   0  0  1  0  0  0  0  0  0  0  0  0
    2.8865   -3.7864    1.4420 O   0  0  0  0  0  0  0  0  0  0  0  0
    3.7947   -2.8848    2.1584 C   0  0  1  0  0  0  0  0  0  0  0  0
    3.8309   -3.2967    3.5779 C   0  0  0  0  0  0  0  0  0  0  0  0
    3.3400   -2.7573    4.5735 O   0  0  0  0  0  0  0  0  0  0  0  0
    4.6513   -4.5917    3.7067 C   0  0  0  0  0  0  0  0  0  0  0  0
    4.9039   -5.3360    2.3546 C   0  0  1  0  0  0  0  0  0  0  0  0
    3.7349   -6.1059    2.1178 O   0  0  0  0  0  0  0  0  0  0  0  0
    5.5227   -4.3727    1.1966 C   0  0  1  0  0  0  0  0  0  0  0  0
    7.0221   -4.8715    1.3195 C   0  0  0  0  0  0  0  0  0  0  0  0
    5.2815   -4.6820   -0.2686 C   0  0  1  0  0  0  0  0  0  0  0  0
    4.1376   -5.4276   -0.4172 O   0  0  0  0  0  0  0  0  0  0  0  0
    5.3501   -3.4246   -1.1504 C   0  0  2  0  0  0  0  0  0  0  0  0
    6.5837   -2.4640   -0.9428 C   0  0  0  0  0  0  0  0  0  0  0  0
    7.2330   -2.2634   -1.9385 O   0  0  0  0  0  0  0  0  0  0  0  0
    7.0243   -1.9176    0.3208 O   0  0  0  0  0  0  0  0  0  0  0  0
    6.4682   -2.1693    1.6087 C   0  0  1  0  0  0  0  0  0  0  0  0
    6.4730   -1.0609    2.4727 O   0  0  0  0  0  0  0  0  0  0  0  0
    5.1448   -2.7993    1.4593 C   0  0  2  0  0  0  0  0  0  0  0  0
    4.4614   -1.4329    0.8588 C   0  0  0  0  0  0  0  0  0  0  0  0
    3.1718   -1.7351    1.4026 C   0  0  1  0  0  0  0  0  0  0  0  0
    2.4293   -0.7488    2.0838 O   0  0  0  0  0  0  0  0  0  0  0  0
    4.3151   -4.9080   -4.8622 H   0  0  0  0  0  0  0  0  0  0  0  0
    5.5989   -4.6000   -3.6204 H   0  0  0  0  0  0  0  0  0  0  0  0
    1.5476   -3.5399   -3.1886 H   0  0  0  0  0  0  0  0  0  0  0  0
    2.1710   -4.2717   -4.5593 H   0  0  0  0  0  0  0  0  0  0  0  0
    2.2934   -2.5099   -4.4190 H   0  0  0  0  0  0  0  0  0  0  0  0
    3.2609   -1.2118   -2.4197 H   0  0  0  0  0  0  0  0  0  0  0  0
    2.0506   -2.3853   -1.5264 H   0  0  0  0  0  0  0  0  0  0  0  0
    2.1994   -4.0263   -1.1874 H   0  0  0  0  0  0  0  0  0  0  0  0
    1.3978   -2.4963    0.7517 H   0  0  0  0  0  0  0  0  0  0  0  0
    5.6108   -4.3198    4.1318 H   0  0  0  0  0  0  0  0  0  0  0  0
    4.1878   -5.2633    4.4260 H   0  0  0  0  0  0  0  0  0  0  0  0
    5.5955   -6.1411    2.5873 H   0  0  0  0  0  0  0  0  0  0  0  0
    3.0800   -5.5058    1.7742 H   0  0  0  0  0  0  0  0  0  0  0  0
    7.7291   -4.3591    0.6686 H   0  0  0  0  0  0  0  0  0  0  0  0
    7.1225   -5.9290    1.0702 H   0  0  0  0  0  0  0  0  0  0  0  0
    7.3901   -4.7999    2.3419 H   0  0  0  0  0  0  0  0  0  0  0  0
    6.0115   -5.3789   -0.6719 H   0  0  0  0  0  0  0  0  0  0  0  0
    3.9655   -5.5311   -1.3463 H   0  0  0  0  0  0  0  0  0  0  0  0
    5.8973   -3.8628   -1.9476 H   0  0  0  0  0  0  0  0  0  0  0  0
    7.1690   -2.8335    2.0377 H   0  0  0  0  0  0  0  0  0  0  0  0
    6.0459   -0.3400    2.0190 H   0  0  0  0  0  0  0  0  0  0  0  0
    4.6903   -0.4433    1.2636 H   0  0  0  0  0  0  0  0  0  0  0  0
    4.4227   -1.2276   -0.1765 H   0  0  0  0  0  0  0  0  0  0  0  0
    1.9723   -0.2413    1.4258 H   0  0  0  0  0  0  0  0  0  0  0  0
  1  2  2  0
  1 29  1  0
  1 30  1  0
  2  3  1  0
  2  4  1  0
  3 31  1  0
  3 32  1  0
  3 33  1  0
  4 19  1  0
  4  5  1  6
  4  6  1  0
  5 34  1  0
  6  7  1  0
  6 35  1  0
  6 36  1  0
  7 27  1  0
  7  8  1  0
  7 37  1  6
  8  9  1  0
  9 25  1  0
  9 27  1  0
  9 10  1  1
 10 11  2  0
 10 12  1  0
 12 13  1  0
 12 38  1  0
 12 39  1  0
 13 14  1  0
 13 15  1  0
 13 40  1  1
 14 41  1  0
 15 25  1  0
 15 16  1  6
 15 17  1  0
 16 42  1  0
 16 43  1  0
 16 44  1  0
 17 18  1  0
 17 19  1  0
 17 45  1  6
 18 46  1  0
 19 20  1  0
 19 47  1  6
 20 21  2  0
 20 22  1  0
 22 23  1  0
 23 24  1  0
 23 25  1  0
 23 48  1  1
 24 49  1  0
 25 26  1  6
 26 27  1  0
 26 50  1  0
 26 51  1  0
 27 28  1  1
 28 52  1  0
M  END
>  <i_m_ct_stereo_status>  (58) 
1

>  <s_m_source_file>  (58) 
/var/tmp/pbs.5076255.sched01/tmpgn4o3w3f/0whq8s7pj.sdf

>  <i_m_source_file_index>  (58) 
32

>  <i_lp_mmshare_version>  (58) 
48012

>  <i_f3d_flags>  (58) 
0

>  <s_epik_input>  (58) 
W0NIMl0xW0NAQF0yKFtPSF0pW0NASF0oTzMpW0NIMl1bQ0BdKFtPSF0pKEMoPVtDSDJdKVtDSDNdKVtDQEBIXShDKD1PKU9bQ0BIXTRbT0hdKVtDQEhdKFtPSF0pW0NAQF0oW0NIM10pKEMxNFtDQEBdMjM1KVtDQEhdKFtPSF0pW0NIMl1DNT1P

>  <s_epik_cmdline>  (58) 
J2VwaWtfcHl0aG9uJywgJy1waHQnLCAnMi4wJywgJy1waCcsICc3LjAnLCAnLXRuJywgJzgnLCAnLW1hJywgJzIwMCcsICctaW1hZScsICc8aW5maWxlLm1hZT4nLCAnLW9tYWUnLCAnPG91dGZpbGUubWFlPic=

>  <r_lp_tautomer_probability>  (58) 
1

>  <r_epik_Ionization_Penalty>  (58) 
5.59562e-06

>  <r_epik_Ionization_Penalty_Charging>  (58) 
0

>  <r_epik_Ionization_Penalty_Neutral>  (58) 
5.59562e-06

>  <r_epik_State_Penalty>  (58) 
-0

>  <r_epik_Charging_Adjusted_Penalty>  (58) 
0

>  <i_epik_Tot_Q>  (58) 
0

>  <i_epik_Tot_abs_Q>  (58) 
0

>  <s_epik_Chemistry_Notes>  (58) 
This compound has an ester and may undergo hydrolysis at high or low pH. This compound contains an acetal/aminal-like group ( X-CH(R)-Y where X, Y are N, S, or O) that may be acid/base labile, releasing an aldehyde.

>  <s_lp_Force_Field>  (58) 
OPLS3e

>  <r_lp_Energy>  (58) 
197.356

>  <b_lp_Chiralities_Consistent>  (58) 
1

>  <s_lp_Variant>  (58) 
18:0-2

>  <s_i_glide_gridfile>  (58) 
pfpi4k_grid

>  <i_i_glide_lignum>  (58) 
32

>  <i_i_glide_rotatable_bonds>  (58) 
6

>  <r_i_docking_score>  (58) 
-3.21988

>  <r_i_glide_ligand_efficiency>  (58) 
-0.114996

>  <r_i_glide_ligand_efficiency_sa>  (58) 
-0.349194

>  <r_i_glide_ligand_efficiency_ln>  (58) 
-0.743242

>  <r_i_glide_gscore>  (58) 
-3.21988

>  <r_i_glide_lipo>  (58) 
-0.451667

>  <r_i_glide_hbond>  (58) 
-0.16

>  <r_i_glide_metal>  (58) 
-0

>  <r_i_glide_rewards>  (58) 
-1.30539

>  <r_i_glide_evdw>  (58) 
-5.18946

>  <r_i_glide_ecoul>  (58) 
-7.53655

>  <r_i_glide_erotb>  (58) 
0.124515

>  <r_i_glide_esite>  (58) 
-0.037384

>  <r_i_glide_emodel>  (58) 
-12.6395

>  <r_i_glide_energy>  (58) 
-12.726

>  <r_i_glide_einternal>  (58) 
7.05843

>  <r_i_glide_intrahb_reward>  (58) 
-0.5

>  <i_i_glide_confnum>  (58) 
2

>  <i_i_glide_posenum>  (58) 
1

>  <r_i_glide_eff_state_penalty>  (58) 
0

>  <ligand_id>  (58) 
18

>  <original_smiles>  (58) 
C=C(C)C1(O)CC2OC34C(=O)CC(O)C5(C)C(O)C1C(=O)OC(O)C53CC24O

>  <smiles>  (58) 
[H]OC1([H])OC(=O)C2([H])C([H])(O[H])C3(C([H])([H])[H])C([H])(O[H])C([H])([H])C(=O)C45OC([H])(C([H])([H])C2(O[H])C(=C([H])[H])C([H])([H])[H])C4(O[H])C([H])([H])C153

$$$$
18:1:2
     RDKit          3D

 52 56  0  0  1  0  0  0  0  0999 V2000
    4.4399   -4.2231   -3.6685 C   0  0  0  0  0  0  0  0  0  0  0  0
    3.4909   -3.5079   -2.9976 C   0  0  0  0  0  0  0  0  0  0  0  0
    2.3091   -3.0135   -3.8152 C   0  0  0  0  0  0  0  0  0  0  0  0
    3.5250   -3.0842   -1.4991 C   0  0  1  0  0  0  0  0  0  0  0  0
    3.0215   -1.7482   -1.6142 O   0  0  0  0  0  0  0  0  0  0  0  0
    2.4658   -3.9942   -0.6747 C   0  0  0  0  0  0  0  0  0  0  0  0
    2.3915   -4.3017    0.8899 C   0  0  1  0  0  0  0  0  0  0  0  0
    3.4229   -5.1519    1.4130 O   0  0  0  0  0  0  0  0  0  0  0  0
    3.8751   -4.1244    2.3663 C   0  0  1  0  0  0  0  0  0  0  0  0
    4.2951   -4.8007    3.6121 C   0  0  0  0  0  0  0  0  0  0  0  0
    3.7620   -4.8056    4.7023 O   0  0  0  0  0  0  0  0  0  0  0  0
    5.6593   -5.4782    3.3923 C   0  0  0  0  0  0  0  0  0  0  0  0
    6.0689   -5.6182    1.8952 C   0  0  1  0  0  0  0  0  0  0  0  0
    5.4449   -6.8051    1.4145 O   0  0  0  0  0  0  0  0  0  0  0  0
    5.9582   -4.2297    1.0505 C   0  0  1  0  0  0  0  0  0  0  0  0
    7.5026   -3.9042    1.0345 C   0  0  0  0  0  0  0  0  0  0  0  0
    5.6769   -4.2481   -0.4358 C   0  0  1  0  0  0  0  0  0  0  0  0
    4.9707   -5.3996   -0.8117 O   0  0  0  0  0  0  0  0  0  0  0  0
    5.0273   -2.9730   -0.9627 C   0  0  2  0  0  0  0  0  0  0  0  0
    5.6302   -1.5795   -0.4530 C   0  0  0  0  0  0  0  0  0  0  0  0
    5.7709   -0.7474   -1.3195 O   0  0  0  0  0  0  0  0  0  0  0  0
    6.0157   -1.2461    0.9194 O   0  0  0  0  0  0  0  0  0  0  0  0
    5.8119   -2.0201    2.1013 C   0  0  1  0  0  0  0  0  0  0  0  0
    5.3719   -1.2595    3.2231 O   0  0  0  0  0  0  0  0  0  0  0  0
    4.9177   -3.1707    1.7590 C   0  0  2  0  0  0  0  0  0  0  0  0
    3.5671   -2.2836    1.5654 C   0  0  0  0  0  0  0  0  0  0  0  0
    2.6551   -3.3161    1.9964 C   0  0  1  0  0  0  0  0  0  0  0  0
    1.6576   -3.0412    2.9500 O   0  0  0  0  0  0  0  0  0  0  0  0
    4.3234   -4.4503   -4.7188 H   0  0  0  0  0  0  0  0  0  0  0  0
    5.3324   -4.5837   -3.2023 H   0  0  0  0  0  0  0  0  0  0  0  0
    1.3631   -3.0426   -3.2754 H   0  0  0  0  0  0  0  0  0  0  0  0
    2.1664   -3.6370   -4.6936 H   0  0  0  0  0  0  0  0  0  0  0  0
    2.4706   -1.9921   -4.1618 H   0  0  0  0  0  0  0  0  0  0  0  0
    2.1281   -1.6297   -1.3029 H   0  0  0  0  0  0  0  0  0  0  0  0
    1.4868   -3.6569   -0.9886 H   0  0  0  0  0  0  0  0  0  0  0  0
    2.4653   -4.9741   -1.1103 H   0  0  0  0  0  0  0  0  0  0  0  0
    1.4588   -4.7987    1.1538 H   0  0  0  0  0  0  0  0  0  0  0  0
    6.4012   -4.8686    3.8947 H   0  0  0  0  0  0  0  0  0  0  0  0
    5.6942   -6.4355    3.9074 H   0  0  0  0  0  0  0  0  0  0  0  0
    7.1031   -5.9741    1.9061 H   0  0  0  0  0  0  0  0  0  0  0  0
    5.6659   -7.5421    1.9499 H   0  0  0  0  0  0  0  0  0  0  0  0
    7.7849   -2.9600    0.5667 H   0  0  0  0  0  0  0  0  0  0  0  0
    8.0671   -4.6701    0.4969 H   0  0  0  0  0  0  0  0  0  0  0  0
    7.9389   -3.9491    2.0239 H   0  0  0  0  0  0  0  0  0  0  0  0
    6.6148   -4.2229   -0.9963 H   0  0  0  0  0  0  0  0  0  0  0  0
    4.5509   -5.2974   -1.6348 H   0  0  0  0  0  0  0  0  0  0  0  0
    5.5379   -2.8697   -1.9233 H   0  0  0  0  0  0  0  0  0  0  0  0
    6.7687   -2.3408    2.4505 H   0  0  0  0  0  0  0  0  0  0  0  0
    4.5498   -0.8793    3.0156 H   0  0  0  0  0  0  0  0  0  0  0  0
    3.3669   -1.4366    2.2355 H   0  0  0  0  0  0  0  0  0  0  0  0
    3.3007   -1.8757    0.6313 H   0  0  0  0  0  0  0  0  0  0  0  0
    2.0824   -2.6535    3.6955 H   0  0  0  0  0  0  0  0  0  0  0  0
  1  2  2  0
  1 29  1  0
  1 30  1  0
  2  3  1  0
  2  4  1  0
  3 31  1  0
  3 32  1  0
  3 33  1  0
  4 19  1  0
  4  5  1  6
  4  6  1  0
  5 34  1  0
  6  7  1  0
  6 35  1  0
  6 36  1  0
  7 27  1  0
  7  8  1  0
  7 37  1  1
  8  9  1  0
  9 25  1  0
  9 27  1  0
  9 10  1  1
 10 11  2  0
 10 12  1  0
 12 13  1  0
 12 38  1  0
 12 39  1  0
 13 14  1  0
 13 15  1  0
 13 40  1  1
 14 41  1  0
 15 25  1  0
 15 16  1  6
 15 17  1  0
 16 42  1  0
 16 43  1  0
 16 44  1  0
 17 18  1  0
 17 19  1  0
 17 45  1  6
 18 46  1  0
 19 20  1  0
 19 47  1  6
 20 21  2  0
 20 22  1  0
 22 23  1  0
 23 24  1  0
 23 25  1  0
 23 48  1  1
 24 49  1  0
 25 26  1  6
 26 27  1  0
 26 50  1  0
 26 51  1  0
 27 28  1  1
 28 52  1  0
M  END
>  <i_m_ct_stereo_status>  (59) 
1

>  <s_m_source_file>  (59) 
/var/tmp/pbs.5076255.sched01/tmpgn4o3w3f/0whq8s7pj.sdf

>  <i_m_source_file_index>  (59) 
32

>  <i_lp_mmshare_version>  (59) 
48012

>  <i_f3d_flags>  (59) 
0

>  <s_epik_input>  (59) 
W0NIMl0xW0NAQF0yKFtPSF0pW0NASF0oTzMpW0NIMl1bQ0BdKFtPSF0pKEMoPVtDSDJdKVtDSDNdKVtDQEBIXShDKD1PKU9bQ0BIXTRbT0hdKVtDQEhdKFtPSF0pW0NAQF0oW0NIM10pKEMxNFtDQEBdMjM1KVtDQEhdKFtPSF0pW0NIMl1DNT1P

>  <s_epik_cmdline>  (59) 
J2VwaWtfcHl0aG9uJywgJy1waHQnLCAnMi4wJywgJy1waCcsICc3LjAnLCAnLXRuJywgJzgnLCAnLW1hJywgJzIwMCcsICctaW1hZScsICc8aW5maWxlLm1hZT4nLCAnLW9tYWUnLCAnPG91dGZpbGUubWFlPic=

>  <r_lp_tautomer_probability>  (59) 
1

>  <r_epik_Ionization_Penalty>  (59) 
5.59562e-06

>  <r_epik_Ionization_Penalty_Charging>  (59) 
0

>  <r_epik_Ionization_Penalty_Neutral>  (59) 
5.59562e-06

>  <r_epik_State_Penalty>  (59) 
-0

>  <r_epik_Charging_Adjusted_Penalty>  (59) 
0

>  <i_epik_Tot_Q>  (59) 
0

>  <i_epik_Tot_abs_Q>  (59) 
0

>  <s_epik_Chemistry_Notes>  (59) 
This compound has an ester and may undergo hydrolysis at high or low pH. This compound contains an acetal/aminal-like group ( X-CH(R)-Y where X, Y are N, S, or O) that may be acid/base labile, releasing an aldehyde.

>  <s_lp_Force_Field>  (59) 
OPLS3e

>  <r_lp_Energy>  (59) 
197.356

>  <b_lp_Chiralities_Consistent>  (59) 
1

>  <s_lp_Variant>  (59) 
18:0-2

>  <s_i_glide_gridfile>  (59) 
pfpi4k_grid

>  <i_i_glide_lignum>  (59) 
32

>  <i_i_glide_rotatable_bonds>  (59) 
6

>  <r_i_docking_score>  (59) 
-2.66454

>  <r_i_glide_ligand_efficiency>  (59) 
-0.0951621

>  <r_i_glide_ligand_efficiency_sa>  (59) 
-0.288968

>  <r_i_glide_ligand_efficiency_ln>  (59) 
-0.615054

>  <r_i_glide_gscore>  (59) 
-2.66454

>  <r_i_glide_lipo>  (59) 
-0.528197

>  <r_i_glide_hbond>  (59) 
-0.0391548

>  <r_i_glide_metal>  (59) 
-0

>  <r_i_glide_rewards>  (59) 
-0.813992

>  <r_i_glide_evdw>  (59) 
-10.9088

>  <r_i_glide_ecoul>  (59) 
-5.52359

>  <r_i_glide_erotb>  (59) 
0.124515

>  <r_i_glide_esite>  (59) 
-0.0337329

>  <r_i_glide_emodel>  (59) 
-14.3892

>  <r_i_glide_energy>  (59) 
-16.4324

>  <r_i_glide_einternal>  (59) 
4.09817

>  <r_i_glide_intrahb_reward>  (59) 
-0

>  <i_i_glide_confnum>  (59) 
5

>  <i_i_glide_posenum>  (59) 
2

>  <r_i_glide_eff_state_penalty>  (59) 
0

>  <ligand_id>  (59) 
18

>  <original_smiles>  (59) 
C=C(C)C1(O)CC2OC34C(=O)CC(O)C5(C)C(O)C1C(=O)OC(O)C53CC24O

>  <smiles>  (59) 
[H]OC1([H])OC(=O)C2([H])C([H])(O[H])C3(C([H])([H])[H])C([H])(O[H])C([H])([H])C(=O)C45OC([H])(C([H])([H])C2(O[H])C(=C([H])[H])C([H])([H])[H])C4(O[H])C([H])([H])C153

$$$$
19:0:0
     RDKit          3D

 68 73  0  0  1  0  0  0  0  0999 V2000
    4.9680   -2.7033    4.0618 C   0  0  0  0  0  0  0  0  0  0  0  0
    3.6942   -2.8822    3.1951 C   0  0  2  0  0  0  0  0  0  0  0  0
    3.8893   -2.9764    1.6144 C   0  0  2  0  0  0  0  0  0  0  0  0
    4.8181   -4.1758    1.2868 C   0  0  0  0  0  0  0  0  0  0  0  0
    4.9564   -4.4303   -0.2065 C   0  0  0  0  0  0  0  0  0  0  0  0
    5.5838   -3.2223   -0.9296 C   0  0  1  0  0  0  0  0  0  0  0  0
    7.0881   -3.0775   -0.5903 C   0  0  0  0  0  0  0  0  0  0  0  0
    5.3886   -3.3664   -2.4553 C   0  0  0  0  0  0  0  0  0  0  0  0
    4.3695   -2.4491   -2.8533 O   0  0  0  0  0  0  0  0  0  0  0  0
    3.7458   -1.9045   -1.7322 C   0  0  1  0  0  0  0  0  0  0  0  0
    2.6187   -2.6513   -1.3568 O   0  0  0  0  0  0  0  0  0  0  0  0
    4.8326   -1.9049   -0.6500 C   0  0  1  0  0  0  0  0  0  0  0  0
    4.3645   -1.6490    0.8362 C   0  0  2  0  0  0  0  0  0  0  0  0
    5.4891   -1.1224    1.5026 O   0  0  0  0  0  0  0  0  0  0  0  0
    3.3776   -0.6358    0.7233 O   0  0  0  0  0  0  0  0  0  0  0  0
    2.3581   -0.4461    1.7022 C   0  0  2  0  0  0  0  0  0  0  0  0
    1.7076    0.9509    1.7138 C   0  0  0  0  0  0  0  0  0  0  0  0
    0.9910    1.2725    3.0659 C   0  0  1  0  0  0  0  0  0  0  0  0
   -0.1373    2.0589    2.7368 O   0  0  0  0  0  0  0  0  0  0  0  0
    0.6750   -0.0217    3.9137 C   0  0  2  0  0  0  0  0  0  0  0  0
   -0.2733    0.0675    5.1518 C   0  0  0  0  0  0  0  0  0  0  0  0
   -1.6612    0.6581    4.8405 C   0  0  0  0  0  0  0  0  0  0  0  0
   -0.5439   -1.3615    5.6953 C   0  0  0  0  0  0  0  0  0  0  0  0
    0.4058    0.9427    6.2109 C   0  0  0  0  0  0  0  0  0  0  0  0
    1.7116    0.3095    6.6872 C   0  0  0  0  0  0  0  0  0  0  0  0
    2.6691   -0.1321    5.5553 C   0  0  1  0  0  0  0  0  0  0  0  0
    3.4886   -1.0946    6.1726 O   0  0  0  0  0  0  0  0  0  0  0  0
    2.0301   -0.6940    4.2614 C   0  0  2  0  0  0  0  0  0  0  0  0
    2.8778   -0.7259    3.0643 C   0  0  1  0  0  0  0  0  0  0  0  0
    2.4651   -2.0581    3.5957 C   0  0  2  0  0  0  0  0  0  0  0  0
    5.3451   -1.6808    4.0764 H   0  0  0  0  0  0  0  0  0  0  0  0
    5.7924   -3.3302    3.7242 H   0  0  0  0  0  0  0  0  0  0  0  0
    4.7864   -3.0110    5.0897 H   0  0  0  0  0  0  0  0  0  0  0  0
    3.3851   -3.8905    3.4693 H   0  0  0  0  0  0  0  0  0  0  0  0
    2.9160   -3.2540    1.1979 H   0  0  0  0  0  0  0  0  0  0  0  0
    5.8029   -4.0497    1.7193 H   0  0  0  0  0  0  0  0  0  0  0  0
    4.4119   -5.0814    1.7401 H   0  0  0  0  0  0  0  0  0  0  0  0
    5.5534   -5.3266   -0.3766 H   0  0  0  0  0  0  0  0  0  0  0  0
    3.9756   -4.6616   -0.6210 H   0  0  0  0  0  0  0  0  0  0  0  0
    7.5383   -2.2540   -1.1381 H   0  0  0  0  0  0  0  0  0  0  0  0
    7.6508   -3.9720   -0.8444 H   0  0  0  0  0  0  0  0  0  0  0  0
    7.2468   -2.8877    0.4698 H   0  0  0  0  0  0  0  0  0  0  0  0
    6.2872   -3.0906   -3.0041 H   0  0  0  0  0  0  0  0  0  0  0  0
    5.1567   -4.3914   -2.7524 H   0  0  0  0  0  0  0  0  0  0  0  0
    3.3886   -0.9035   -1.9808 H   0  0  0  0  0  0  0  0  0  0  0  0
    1.9264   -2.0229   -1.1192 H   0  0  0  0  0  0  0  0  0  0  0  0
    5.4819   -1.0823   -0.9371 H   0  0  0  0  0  0  0  0  0  0  0  0
    5.8118   -0.3972    0.9939 H   0  0  0  0  0  0  0  0  0  0  0  0
    1.5697   -1.1719    1.4720 H   0  0  0  0  0  0  0  0  0  0  0  0
    2.4529    1.7219    1.5302 H   0  0  0  0  0  0  0  0  0  0  0  0
    1.0092    0.9897    0.8793 H   0  0  0  0  0  0  0  0  0  0  0  0
    1.6616    1.9006    3.6676 H   0  0  0  0  0  0  0  0  0  0  0  0
    0.1364    2.7903    2.1917 H   0  0  0  0  0  0  0  0  0  0  0  0
    0.1499   -0.6927    3.2384 H   0  0  0  0  0  0  0  0  0  0  0  0
   -2.3679    0.4497    5.6443 H   0  0  0  0  0  0  0  0  0  0  0  0
   -2.0727    0.2344    3.9265 H   0  0  0  0  0  0  0  0  0  0  0  0
   -1.6349    1.7420    4.7243 H   0  0  0  0  0  0  0  0  0  0  0  0
   -1.0936   -1.3165    6.6337 H   0  0  0  0  0  0  0  0  0  0  0  0
    0.3725   -1.9156    5.8979 H   0  0  0  0  0  0  0  0  0  0  0  0
   -1.1235   -1.9569    4.9875 H   0  0  0  0  0  0  0  0  0  0  0  0
    0.6262    1.9187    5.7823 H   0  0  0  0  0  0  0  0  0  0  0  0
   -0.2630    1.1249    7.0569 H   0  0  0  0  0  0  0  0  0  0  0  0
    2.2382    1.0168    7.3272 H   0  0  0  0  0  0  0  0  0  0  0  0
    1.4638   -0.5352    7.3327 H   0  0  0  0  0  0  0  0  0  0  0  0
    3.2839    0.7190    5.2631 H   0  0  0  0  0  0  0  0  0  0  0  0
    4.1378   -1.3796    5.5474 H   0  0  0  0  0  0  0  0  0  0  0  0
    3.8628   -0.2968    3.2423 H   0  0  0  0  0  0  0  0  0  0  0  0
    1.5774   -2.5569    3.2058 H   0  0  0  0  0  0  0  0  0  0  0  0
  1  2  1  0
  1 31  1  0
  1 32  1  0
  1 33  1  0
  2 30  1  0
  2  3  1  0
  2 34  1  1
  3 13  1  0
  3  4  1  0
  3 35  1  6
  4  5  1  0
  4 36  1  0
  4 37  1  0
  5  6  1  0
  5 38  1  0
  5 39  1  0
  6 12  1  0
  6  7  1  6
  6  8  1  0
  7 40  1  0
  7 41  1  0
  7 42  1  0
  8  9  1  0
  8 43  1  0
  8 44  1  0
  9 10  1  0
 10 11  1  0
 10 12  1  0
 10 45  1  6
 11 46  1  0
 12 13  1  0
 12 47  1  6
 13 14  1  1
 13 15  1  0
 14 48  1  0
 15 16  1  0
 16 29  1  0
 16 17  1  0
 16 49  1  6
 17 18  1  0
 17 50  1  0
 17 51  1  0
 18 19  1  0
 18 20  1  0
 18 52  1  1
 19 53  1  0
 20 28  1  0
 20 21  1  0
 20 54  1  6
 21 22  1  0
 21 23  1  0
 21 24  1  0
 22 55  1  0
 22 56  1  0
 22 57  1  0
 23 58  1  0
 23 59  1  0
 23 60  1  0
 24 25  1  0
 24 61  1  0
 24 62  1  0
 25 26  1  0
 25 63  1  0
 25 64  1  0
 26 27  1  0
 28 26  1  1
 26 65  1  6
 27 66  1  0
 28 30  1  0
 28 29  1  0
 29 30  1  0
 29 67  1  1
 30 68  1  6
M  END
>  <i_m_ct_stereo_status>  (60) 
1

>  <s_m_source_file>  (60) 
/var/tmp/pbs.5076255.sched01/tmpgn4o3w3f/0whq8s7pj.sdf

>  <i_m_source_file_index>  (60) 
33

>  <i_lp_mmshare_version>  (60) 
48012

>  <i_f3d_flags>  (60) 
0

>  <s_epik_input>  (60) 
W09IXVtDQEBIXTFPW0NIMl1bQ0BdKFtDSDNdKShbQ0gyXVtDSDJdMilbQ0BASF0xW0NAXShPMykoW09IXSlbQ0BASF0yW0NAQEhdKFtDSDNdKVtDQEBIXTRbQ0BIXTVbQ0BIXTNbQ0gyXVtDQEBIXShbT0hdKVtDQEBIXShbQ0BAXTQ1NilDKFtDSDNdKShbQ0gzXSlbQ0gyXVtDSDJdW0NASF02W09IXQ==

>  <s_epik_cmdline>  (60) 
J2VwaWtfcHl0aG9uJywgJy1waHQnLCAnMi4wJywgJy1waCcsICc3LjAnLCAnLXRuJywgJzgnLCAnLW1hJywgJzIwMCcsICctaW1hZScsICc8aW5maWxlLm1hZT4nLCAnLW9tYWUnLCAnPG91dGZpbGUubWFlPic=

>  <r_lp_tautomer_probability>  (60) 
1

>  <r_epik_Ionization_Penalty>  (60) 
3.09387e-06

>  <r_epik_Ionization_Penalty_Charging>  (60) 
0

>  <r_epik_Ionization_Penalty_Neutral>  (60) 
3.09387e-06

>  <r_epik_State_Penalty>  (60) 
-0

>  <r_epik_Charging_Adjusted_Penalty>  (60) 
0

>  <i_epik_Tot_Q>  (60) 
0

>  <i_epik_Tot_abs_Q>  (60) 
0

>  <s_epik_Chemistry_Notes>  (60) 
This compound contains an acetal/aminal-like group ( X-CH(R)-Y where X, Y are N, S, or O) that may be acid/base labile, releasing an aldehyde.

>  <s_lp_Force_Field>  (60) 
OPLS3e

>  <r_lp_Energy>  (60) 
81.4693

>  <b_lp_Chiralities_Consistent>  (60) 
1

>  <s_lp_Variant>  (60) 
19:0-1

>  <s_i_glide_gridfile>  (60) 
pfpi4k_grid

>  <i_i_glide_lignum>  (60) 
33

>  <i_i_glide_rotatable_bonds>  (60) 
4

>  <r_i_docking_score>  (60) 
-3.80579

>  <r_i_glide_ligand_efficiency>  (60) 
-0.12686

>  <r_i_glide_ligand_efficiency_sa>  (60) 
-0.394183

>  <r_i_glide_ligand_efficiency_ln>  (60) 
-0.864718

>  <r_i_glide_gscore>  (60) 
-3.80579

>  <r_i_glide_lipo>  (60) 
-0.484452

>  <r_i_glide_hbond>  (60) 
-0.125344

>  <r_i_glide_metal>  (60) 
-0

>  <r_i_glide_rewards>  (60) 
-0.528035

>  <r_i_glide_evdw>  (60) 
-30.8656

>  <r_i_glide_ecoul>  (60) 
-7.10524

>  <r_i_glide_erotb>  (60) 
0

>  <r_i_glide_esite>  (60) 
-0.0588988

>  <r_i_glide_emodel>  (60) 
-45.6371

>  <r_i_glide_energy>  (60) 
-37.9708

>  <r_i_glide_einternal>  (60) 
3.01918

>  <r_i_glide_intrahb_reward>  (60) 
-0

>  <i_i_glide_confnum>  (60) 
1

>  <i_i_glide_posenum>  (60) 
11

>  <r_i_glide_eff_state_penalty>  (60) 
0

>  <ligand_id>  (60) 
19

>  <original_smiles>  (60) 
CC1C2CCC3(C)COC(O)C3C2(O)OC2CC(O)C3C(C)(C)CCC(O)C34C2C14

>  <smiles>  (60) 
[H]OC1([H])OC([H])([H])C2(C([H])([H])[H])C([H])([H])C([H])([H])C3([H])C(O[H])(OC4([H])C([H])([H])C([H])(O[H])C5([H])C(C([H])([H])[H])(C([H])([H])[H])C([H])([H])C([H])([H])C([H])(O[H])C56C4([H])C6([H])C3([H])C([H])([H])[H])C12[H]

$$$$
19:0:1
     RDKit          3D

 68 73  0  0  1  0  0  0  0  0999 V2000
    4.9686   -2.7001    4.0597 C   0  0  0  0  0  0  0  0  0  0  0  0
    3.6952   -2.8779    3.1889 C   0  0  2  0  0  0  0  0  0  0  0  0
    3.8868   -2.9750    1.6088 C   0  0  2  0  0  0  0  0  0  0  0  0
    4.8182   -4.1722    1.2825 C   0  0  0  0  0  0  0  0  0  0  0  0
    4.9576   -4.4281   -0.2094 C   0  0  0  0  0  0  0  0  0  0  0  0
    5.5851   -3.2157   -0.9326 C   0  0  1  0  0  0  0  0  0  0  0  0
    7.0879   -3.0696   -0.5932 C   0  0  0  0  0  0  0  0  0  0  0  0
    5.3910   -3.3603   -2.4593 C   0  0  0  0  0  0  0  0  0  0  0  0
    4.3687   -2.4476   -2.8567 O   0  0  0  0  0  0  0  0  0  0  0  0
    3.7439   -1.9029   -1.7378 C   0  0  1  0  0  0  0  0  0  0  0  0
    2.6141   -2.6608   -1.3587 O   0  0  0  0  0  0  0  0  0  0  0  0
    4.8292   -1.9046   -0.6516 C   0  0  1  0  0  0  0  0  0  0  0  0
    4.3660   -1.6473    0.8334 C   0  0  2  0  0  0  0  0  0  0  0  0
    5.4938   -1.1366    1.5087 O   0  0  0  0  0  0  0  0  0  0  0  0
    3.3830   -0.6276    0.7253 O   0  0  0  0  0  0  0  0  0  0  0  0
    2.3542   -0.4438    1.6989 C   0  0  2  0  0  0  0  0  0  0  0  0
    1.7046    0.9521    1.7165 C   0  0  0  0  0  0  0  0  0  0  0  0
    0.9890    1.2728    3.0693 C   0  0  1  0  0  0  0  0  0  0  0  0
   -0.1390    2.0626    2.7407 O   0  0  0  0  0  0  0  0  0  0  0  0
    0.6722   -0.0229    3.9126 C   0  0  2  0  0  0  0  0  0  0  0  0
   -0.2760    0.0640    5.1521 C   0  0  0  0  0  0  0  0  0  0  0  0
   -1.6649    0.6547    4.8406 C   0  0  0  0  0  0  0  0  0  0  0  0
   -0.5444   -1.3655    5.6943 C   0  0  0  0  0  0  0  0  0  0  0  0
    0.4032    0.9398    6.2110 C   0  0  0  0  0  0  0  0  0  0  0  0
    1.7082    0.3067    6.6864 C   0  0  0  0  0  0  0  0  0  0  0  0
    2.6669   -0.1357    5.5553 C   0  0  1  0  0  0  0  0  0  0  0  0
    3.4849   -1.0986    6.1751 O   0  0  0  0  0  0  0  0  0  0  0  0
    2.0282   -0.6965    4.2594 C   0  0  2  0  0  0  0  0  0  0  0  0
    2.8726   -0.7244    3.0621 C   0  0  1  0  0  0  0  0  0  0  0  0
    2.4649   -2.0569    3.5914 C   0  0  2  0  0  0  0  0  0  0  0  0
    5.3465   -1.6784    4.0908 H   0  0  0  0  0  0  0  0  0  0  0  0
    5.7930   -3.3283    3.7247 H   0  0  0  0  0  0  0  0  0  0  0  0
    4.7825   -3.0156    5.0841 H   0  0  0  0  0  0  0  0  0  0  0  0
    3.3883   -3.8870    3.4641 H   0  0  0  0  0  0  0  0  0  0  0  0
    2.9131   -3.2562    1.1915 H   0  0  0  0  0  0  0  0  0  0  0  0
    5.8036   -4.0485    1.7147 H   0  0  0  0  0  0  0  0  0  0  0  0
    4.4118   -5.0776    1.7350 H   0  0  0  0  0  0  0  0  0  0  0  0
    5.5557   -5.3239   -0.3823 H   0  0  0  0  0  0  0  0  0  0  0  0
    3.9770   -4.6597   -0.6245 H   0  0  0  0  0  0  0  0  0  0  0  0
    7.5372   -2.2422   -1.1354 H   0  0  0  0  0  0  0  0  0  0  0  0
    7.6524   -3.9626   -0.8476 H   0  0  0  0  0  0  0  0  0  0  0  0
    7.2451   -2.8815    0.4669 H   0  0  0  0  0  0  0  0  0  0  0  0
    6.2887   -3.0805   -3.0054 H   0  0  0  0  0  0  0  0  0  0  0  0
    5.1617   -4.3855   -2.7562 H   0  0  0  0  0  0  0  0  0  0  0  0
    3.3838   -0.9043   -1.9845 H   0  0  0  0  0  0  0  0  0  0  0  0
    1.9275   -2.0272   -1.1272 H   0  0  0  0  0  0  0  0  0  0  0  0
    5.4783   -1.0729   -0.9348 H   0  0  0  0  0  0  0  0  0  0  0  0
    5.2565   -1.0311    2.4126 H   0  0  0  0  0  0  0  0  0  0  0  0
    1.5649   -1.1666    1.4701 H   0  0  0  0  0  0  0  0  0  0  0  0
    2.4495    1.7257    1.5306 H   0  0  0  0  0  0  0  0  0  0  0  0
    1.0058    0.9928    0.8796 H   0  0  0  0  0  0  0  0  0  0  0  0
    1.6609    1.8971    3.6705 H   0  0  0  0  0  0  0  0  0  0  0  0
    0.1330    2.7927    2.1953 H   0  0  0  0  0  0  0  0  0  0  0  0
    0.1464   -0.6930    3.2374 H   0  0  0  0  0  0  0  0  0  0  0  0
   -2.3724    0.4442    5.6426 H   0  0  0  0  0  0  0  0  0  0  0  0
   -2.0755    0.2320    3.9267 H   0  0  0  0  0  0  0  0  0  0  0  0
   -1.6412    1.7383    4.7286 H   0  0  0  0  0  0  0  0  0  0  0  0
   -1.0955   -1.3224    6.6309 H   0  0  0  0  0  0  0  0  0  0  0  0
    0.3721   -1.9183    5.8992 H   0  0  0  0  0  0  0  0  0  0  0  0
   -1.1243   -1.9615    4.9879 H   0  0  0  0  0  0  0  0  0  0  0  0
    0.6221    1.9156    5.7816 H   0  0  0  0  0  0  0  0  0  0  0  0
   -0.2665    1.1221    7.0558 H   0  0  0  0  0  0  0  0  0  0  0  0
    2.2334    1.0149    7.3274 H   0  0  0  0  0  0  0  0  0  0  0  0
    1.4609   -0.5372    7.3329 H   0  0  0  0  0  0  0  0  0  0  0  0
    3.2804    0.7178    5.2660 H   0  0  0  0  0  0  0  0  0  0  0  0
    4.1459   -1.3759    5.5594 H   0  0  0  0  0  0  0  0  0  0  0  0
    3.8514   -0.2850    3.2478 H   0  0  0  0  0  0  0  0  0  0  0  0
    1.5770   -2.5554    3.2042 H   0  0  0  0  0  0  0  0  0  0  0  0
  1  2  1  0
  1 31  1  0
  1 32  1  0
  1 33  1  0
  2 30  1  0
  2  3  1  0
  2 34  1  1
  3 13  1  0
  3  4  1  0
  3 35  1  6
  4  5  1  0
  4 36  1  0
  4 37  1  0
  5  6  1  0
  5 38  1  0
  5 39  1  0
  6 12  1  0
  6  7  1  6
  6  8  1  0
  7 40  1  0
  7 41  1  0
  7 42  1  0
  8  9  1  0
  8 43  1  0
  8 44  1  0
  9 10  1  0
 10 11  1  0
 10 12  1  0
 10 45  1  6
 11 46  1  0
 12 13  1  0
 12 47  1  6
 13 14  1  1
 13 15  1  0
 14 48  1  0
 15 16  1  0
 16 29  1  0
 16 17  1  0
 16 49  1  6
 17 18  1  0
 17 50  1  0
 17 51  1  0
 18 19  1  0
 18 20  1  0
 18 52  1  1
 19 53  1  0
 20 28  1  0
 20 21  1  0
 20 54  1  6
 21 22  1  0
 21 23  1  0
 21 24  1  0
 22 55  1  0
 22 56  1  0
 22 57  1  0
 23 58  1  0
 23 59  1  0
 23 60  1  0
 24 25  1  0
 24 61  1  0
 24 62  1  0
 25 26  1  0
 25 63  1  0
 25 64  1  0
 26 27  1  0
 28 26  1  1
 26 65  1  6
 27 66  1  0
 28 30  1  0
 28 29  1  0
 29 30  1  0
 29 67  1  1
 30 68  1  6
M  END
>  <i_m_ct_stereo_status>  (61) 
1

>  <s_m_source_file>  (61) 
/var/tmp/pbs.5076255.sched01/tmpgn4o3w3f/0whq8s7pj.sdf

>  <i_m_source_file_index>  (61) 
33

>  <i_lp_mmshare_version>  (61) 
48012

>  <i_f3d_flags>  (61) 
0

>  <s_epik_input>  (61) 
W09IXVtDQEBIXTFPW0NIMl1bQ0BdKFtDSDNdKShbQ0gyXVtDSDJdMilbQ0BASF0xW0NAXShPMykoW09IXSlbQ0BASF0yW0NAQEhdKFtDSDNdKVtDQEBIXTRbQ0BIXTVbQ0BIXTNbQ0gyXVtDQEBIXShbT0hdKVtDQEBIXShbQ0BAXTQ1NilDKFtDSDNdKShbQ0gzXSlbQ0gyXVtDSDJdW0NASF02W09IXQ==

>  <s_epik_cmdline>  (61) 
J2VwaWtfcHl0aG9uJywgJy1waHQnLCAnMi4wJywgJy1waCcsICc3LjAnLCAnLXRuJywgJzgnLCAnLW1hJywgJzIwMCcsICctaW1hZScsICc8aW5maWxlLm1hZT4nLCAnLW9tYWUnLCAnPG91dGZpbGUubWFlPic=

>  <r_lp_tautomer_probability>  (61) 
1

>  <r_epik_Ionization_Penalty>  (61) 
3.09387e-06

>  <r_epik_Ionization_Penalty_Charging>  (61) 
0

>  <r_epik_Ionization_Penalty_Neutral>  (61) 
3.09387e-06

>  <r_epik_State_Penalty>  (61) 
-0

>  <r_epik_Charging_Adjusted_Penalty>  (61) 
0

>  <i_epik_Tot_Q>  (61) 
0

>  <i_epik_Tot_abs_Q>  (61) 
0

>  <s_epik_Chemistry_Notes>  (61) 
This compound contains an acetal/aminal-like group ( X-CH(R)-Y where X, Y are N, S, or O) that may be acid/base labile, releasing an aldehyde.

>  <s_lp_Force_Field>  (61) 
OPLS3e

>  <r_lp_Energy>  (61) 
81.4693

>  <b_lp_Chiralities_Consistent>  (61) 
1

>  <s_lp_Variant>  (61) 
19:0-1

>  <s_i_glide_gridfile>  (61) 
pfpi4k_grid

>  <i_i_glide_lignum>  (61) 
33

>  <i_i_glide_rotatable_bonds>  (61) 
4

>  <r_i_docking_score>  (61) 
-3.75237

>  <r_i_glide_ligand_efficiency>  (61) 
-0.125079

>  <r_i_glide_ligand_efficiency_sa>  (61) 
-0.38865

>  <r_i_glide_ligand_efficiency_ln>  (61) 
-0.85258

>  <r_i_glide_gscore>  (61) 
-3.75237

>  <r_i_glide_lipo>  (61) 
-0.484176

>  <r_i_glide_hbond>  (61) 
-0.125096

>  <r_i_glide_metal>  (61) 
-0

>  <r_i_glide_rewards>  (61) 
-0.528035

>  <r_i_glide_evdw>  (61) 
-30.9589

>  <r_i_glide_ecoul>  (61) 
-6.72168

>  <r_i_glide_erotb>  (61) 
0

>  <r_i_glide_esite>  (61) 
-0.0588699

>  <r_i_glide_emodel>  (61) 
-45.269

>  <r_i_glide_energy>  (61) 
-37.6806

>  <r_i_glide_einternal>  (61) 
2.91491

>  <r_i_glide_intrahb_reward>  (61) 
-0

>  <i_i_glide_confnum>  (61) 
2

>  <i_i_glide_posenum>  (61) 
10

>  <r_i_glide_eff_state_penalty>  (61) 
0

>  <ligand_id>  (61) 
19

>  <original_smiles>  (61) 
CC1C2CCC3(C)COC(O)C3C2(O)OC2CC(O)C3C(C)(C)CCC(O)C34C2C14

>  <smiles>  (61) 
[H]OC1([H])OC([H])([H])C2(C([H])([H])[H])C([H])([H])C([H])([H])C3([H])C(O[H])(OC4([H])C([H])([H])C([H])(O[H])C5([H])C(C([H])([H])[H])(C([H])([H])[H])C([H])([H])C([H])([H])C([H])(O[H])C56C4([H])C6([H])C3([H])C([H])([H])[H])C12[H]

$$$$
19:0:2
     RDKit          3D

 68 73  0  0  1  0  0  0  0  0999 V2000
    4.9388   -2.7044    4.2335 C   0  0  0  0  0  0  0  0  0  0  0  0
    3.7358   -2.8326    3.2612 C   0  0  2  0  0  0  0  0  0  0  0  0
    4.0507   -2.8366    1.6972 C   0  0  2  0  0  0  0  0  0  0  0  0
    5.0133   -4.0081    1.3759 C   0  0  0  0  0  0  0  0  0  0  0  0
    5.2690   -4.1764   -0.1130 C   0  0  0  0  0  0  0  0  0  0  0  0
    5.9450   -2.9260   -0.7130 C   0  0  1  0  0  0  0  0  0  0  0  0
    7.4198   -2.8119   -0.2565 C   0  0  0  0  0  0  0  0  0  0  0  0
    5.8689   -2.9865   -2.2549 C   0  0  0  0  0  0  0  0  0  0  0  0
    4.8838   -2.0428   -2.6787 O   0  0  0  0  0  0  0  0  0  0  0  0
    4.1643   -1.5678   -1.5800 C   0  0  1  0  0  0  0  0  0  0  0  0
    3.0140   -2.3512   -1.3470 O   0  0  0  0  0  0  0  0  0  0  0  0
    5.1655   -1.6325   -0.4154 C   0  0  1  0  0  0  0  0  0  0  0  0
    4.5779   -1.4644    1.0389 C   0  0  2  0  0  0  0  0  0  0  0  0
    5.6459   -0.9889    1.8257 O   0  0  0  0  0  0  0  0  0  0  0  0
    3.5971   -0.4429    0.9066 O   0  0  0  0  0  0  0  0  0  0  0  0
    2.5085   -0.3072    1.8155 C   0  0  2  0  0  0  0  0  0  0  0  0
    1.8548    1.0847    1.8645 C   0  0  0  0  0  0  0  0  0  0  0  0
    1.0338    1.3203    3.1734 C   0  0  1  0  0  0  0  0  0  0  0  0
   -0.0784    2.1085    2.7990 O   0  0  0  0  0  0  0  0  0  0  0  0
    0.6630   -0.0242    3.9143 C   0  0  2  0  0  0  0  0  0  0  0  0
   -0.3795   -0.0036    5.0825 C   0  0  0  0  0  0  0  0  0  0  0  0
   -1.7400    0.6081    4.6955 C   0  0  0  0  0  0  0  0  0  0  0  0
   -0.6920   -1.4570    5.5181 C   0  0  0  0  0  0  0  0  0  0  0  0
    0.2126    0.8117    6.2364 C   0  0  0  0  0  0  0  0  0  0  0  0
    1.4756    0.1464    6.7771 C   0  0  0  0  0  0  0  0  0  0  0  0
    2.5198   -0.2379    5.7026 C   0  0  1  0  0  0  0  0  0  0  0  0
    3.3027   -1.2357    6.3239 O   0  0  0  0  0  0  0  0  0  0  0  0
    1.9887   -0.7177    4.3282 C   0  0  2  0  0  0  0  0  0  0  0  0
    2.9224   -0.6694    3.1964 C   0  0  1  0  0  0  0  0  0  0  0  0
    2.4774   -2.0314    3.6128 C   0  0  2  0  0  0  0  0  0  0  0  0
    5.2995   -1.6835    4.3473 H   0  0  0  0  0  0  0  0  0  0  0  0
    5.7924   -3.3102    3.9343 H   0  0  0  0  0  0  0  0  0  0  0  0
    4.6727   -3.0628    5.2239 H   0  0  0  0  0  0  0  0  0  0  0  0
    3.4138   -3.8564    3.4486 H   0  0  0  0  0  0  0  0  0  0  0  0
    3.1175   -3.0846    1.1881 H   0  0  0  0  0  0  0  0  0  0  0  0
    5.9607   -3.9112    1.8923 H   0  0  0  0  0  0  0  0  0  0  0  0
    4.5749   -4.9376    1.7421 H   0  0  0  0  0  0  0  0  0  0  0  0
    5.8817   -5.0603   -0.2899 H   0  0  0  0  0  0  0  0  0  0  0  0
    4.3240   -4.3857   -0.6136 H   0  0  0  0  0  0  0  0  0  0  0  0
    7.9097   -1.9487   -0.6988 H   0  0  0  0  0  0  0  0  0  0  0  0
    7.9920   -3.6929   -0.5395 H   0  0  0  0  0  0  0  0  0  0  0  0
    7.5084   -2.7005    0.8216 H   0  0  0  0  0  0  0  0  0  0  0  0
    6.8073   -2.6771   -2.7106 H   0  0  0  0  0  0  0  0  0  0  0  0
    5.6634   -3.9907   -2.6271 H   0  0  0  0  0  0  0  0  0  0  0  0
    3.8241   -0.5525   -1.8031 H   0  0  0  0  0  0  0  0  0  0  0  0
    2.2931   -1.7646   -1.1178 H   0  0  0  0  0  0  0  0  0  0  0  0
    5.8244   -0.7855   -0.5949 H   0  0  0  0  0  0  0  0  0  0  0  0
    6.3485   -1.6194    1.7671 H   0  0  0  0  0  0  0  0  0  0  0  0
    1.7454   -1.0115    1.4783 H   0  0  0  0  0  0  0  0  0  0  0  0
    2.6094    1.8646    1.7744 H   0  0  0  0  0  0  0  0  0  0  0  0
    1.2156    1.1706    0.9854 H   0  0  0  0  0  0  0  0  0  0  0  0
    1.6520    1.9159    3.8541 H   0  0  0  0  0  0  0  0  0  0  0  0
    0.2155    2.8271    2.2472 H   0  0  0  0  0  0  0  0  0  0  0  0
    0.1914   -0.6492    3.1589 H   0  0  0  0  0  0  0  0  0  0  0  0
   -2.5123    0.3422    5.4203 H   0  0  0  0  0  0  0  0  0  0  0  0
   -2.0604    0.2422    3.7217 H   0  0  0  0  0  0  0  0  0  0  0  0
   -1.7150    1.6985    4.6531 H   0  0  0  0  0  0  0  0  0  0  0  0
   -1.3265   -1.4764    6.4044 H   0  0  0  0  0  0  0  0  0  0  0  0
    0.2057   -2.0278    5.7600 H   0  0  0  0  0  0  0  0  0  0  0  0
   -1.2067   -2.0079    4.7302 H   0  0  0  0  0  0  0  0  0  0  0  0
    0.4555    1.8136    5.8826 H   0  0  0  0  0  0  0  0  0  0  0  0
   -0.5250    0.9454    7.0340 H   0  0  0  0  0  0  0  0  0  0  0  0
    1.9453    0.8203    7.4927 H   0  0  0  0  0  0  0  0  0  0  0  0
    1.1725   -0.7256    7.3559 H   0  0  0  0  0  0  0  0  0  0  0  0
    3.1531    0.6267    5.5126 H   0  0  0  0  0  0  0  0  0  0  0  0
    2.7683   -2.0037    6.4426 H   0  0  0  0  0  0  0  0  0  0  0  0
    3.8899   -0.2550    3.4762 H   0  0  0  0  0  0  0  0  0  0  0  0
    1.6236   -2.5056    3.1256 H   0  0  0  0  0  0  0  0  0  0  0  0
  1  2  1  0
  1 31  1  0
  1 32  1  0
  1 33  1  0
  2 30  1  0
  2  3  1  0
  2 34  1  1
  3 13  1  0
  3  4  1  0
  3 35  1  6
  4  5  1  0
  4 36  1  0
  4 37  1  0
  5  6  1  0
  5 38  1  0
  5 39  1  0
  6 12  1  0
  6  7  1  6
  6  8  1  0
  7 40  1  0
  7 41  1  0
  7 42  1  0
  8  9  1  0
  8 43  1  0
  8 44  1  0
  9 10  1  0
 10 11  1  0
 10 12  1  0
 10 45  1  6
 11 46  1  0
 12 13  1  0
 12 47  1  6
 13 14  1  1
 13 15  1  0
 14 48  1  0
 15 16  1  0
 16 29  1  0
 16 17  1  0
 16 49  1  6
 17 18  1  0
 17 50  1  0
 17 51  1  0
 18 19  1  0
 18 20  1  0
 18 52  1  1
 19 53  1  0
 20 28  1  0
 20 21  1  0
 20 54  1  6
 21 22  1  0
 21 23  1  0
 21 24  1  0
 22 55  1  0
 22 56  1  0
 22 57  1  0
 23 58  1  0
 23 59  1  0
 23 60  1  0
 24 25  1  0
 24 61  1  0
 24 62  1  0
 25 26  1  0
 25 63  1  0
 25 64  1  0
 26 27  1  0
 28 26  1  1
 26 65  1  6
 27 66  1  0
 28 30  1  0
 28 29  1  0
 29 30  1  0
 29 67  1  1
 30 68  1  6
M  END
>  <i_m_ct_stereo_status>  (62) 
1

>  <s_m_source_file>  (62) 
/var/tmp/pbs.5076255.sched01/tmpgn4o3w3f/0whq8s7pj.sdf

>  <i_m_source_file_index>  (62) 
33

>  <i_lp_mmshare_version>  (62) 
48012

>  <i_f3d_flags>  (62) 
0

>  <s_epik_input>  (62) 
W09IXVtDQEBIXTFPW0NIMl1bQ0BdKFtDSDNdKShbQ0gyXVtDSDJdMilbQ0BASF0xW0NAXShPMykoW09IXSlbQ0BASF0yW0NAQEhdKFtDSDNdKVtDQEBIXTRbQ0BIXTVbQ0BIXTNbQ0gyXVtDQEBIXShbT0hdKVtDQEBIXShbQ0BAXTQ1NilDKFtDSDNdKShbQ0gzXSlbQ0gyXVtDSDJdW0NASF02W09IXQ==

>  <s_epik_cmdline>  (62) 
J2VwaWtfcHl0aG9uJywgJy1waHQnLCAnMi4wJywgJy1waCcsICc3LjAnLCAnLXRuJywgJzgnLCAnLW1hJywgJzIwMCcsICctaW1hZScsICc8aW5maWxlLm1hZT4nLCAnLW9tYWUnLCAnPG91dGZpbGUubWFlPic=

>  <r_lp_tautomer_probability>  (62) 
1

>  <r_epik_Ionization_Penalty>  (62) 
3.09387e-06

>  <r_epik_Ionization_Penalty_Charging>  (62) 
0

>  <r_epik_Ionization_Penalty_Neutral>  (62) 
3.09387e-06

>  <r_epik_State_Penalty>  (62) 
-0

>  <r_epik_Charging_Adjusted_Penalty>  (62) 
0

>  <i_epik_Tot_Q>  (62) 
0

>  <i_epik_Tot_abs_Q>  (62) 
0

>  <s_epik_Chemistry_Notes>  (62) 
This compound contains an acetal/aminal-like group ( X-CH(R)-Y where X, Y are N, S, or O) that may be acid/base labile, releasing an aldehyde.

>  <s_lp_Force_Field>  (62) 
OPLS3e

>  <r_lp_Energy>  (62) 
81.4693

>  <b_lp_Chiralities_Consistent>  (62) 
1

>  <s_lp_Variant>  (62) 
19:0-1

>  <s_i_glide_gridfile>  (62) 
pfpi4k_grid

>  <i_i_glide_lignum>  (62) 
33

>  <i_i_glide_rotatable_bonds>  (62) 
4

>  <r_i_docking_score>  (62) 
-3.50539

>  <r_i_glide_ligand_efficiency>  (62) 
-0.116846

>  <r_i_glide_ligand_efficiency_sa>  (62) 
-0.363068

>  <r_i_glide_ligand_efficiency_ln>  (62) 
-0.796462

>  <r_i_glide_gscore>  (62) 
-3.50539

>  <r_i_glide_lipo>  (62) 
-0.344012

>  <r_i_glide_hbond>  (62) 
-0.119456

>  <r_i_glide_metal>  (62) 
-0

>  <r_i_glide_rewards>  (62) 
-0.546382

>  <r_i_glide_evdw>  (62) 
-31.9182

>  <r_i_glide_ecoul>  (62) 
-5.70954

>  <r_i_glide_erotb>  (62) 
0

>  <r_i_glide_esite>  (62) 
-0.0431954

>  <r_i_glide_emodel>  (62) 
-43.8171

>  <r_i_glide_energy>  (62) 
-37.6277

>  <r_i_glide_einternal>  (62) 
4.38043

>  <r_i_glide_intrahb_reward>  (62) 
-0

>  <i_i_glide_confnum>  (62) 
2

>  <i_i_glide_posenum>  (62) 
1

>  <r_i_glide_eff_state_penalty>  (62) 
0

>  <ligand_id>  (62) 
19

>  <original_smiles>  (62) 
CC1C2CCC3(C)COC(O)C3C2(O)OC2CC(O)C3C(C)(C)CCC(O)C34C2C14

>  <smiles>  (62) 
[H]OC1([H])OC([H])([H])C2(C([H])([H])[H])C([H])([H])C([H])([H])C3([H])C(O[H])(OC4([H])C([H])([H])C([H])(O[H])C5([H])C(C([H])([H])[H])(C([H])([H])[H])C([H])([H])C([H])([H])C([H])(O[H])C56C4([H])C6([H])C3([H])C([H])([H])[H])C12[H]

$$$$
20:0:0
     RDKit          3D

 39 43  0  0  1  0  0  0  0  0999 V2000
    6.6663   -5.6838    2.6244 C   0  0  0  0  0  0  0  0  0  0  0  0
    6.2703   -4.4152    2.1122 O   0  0  0  0  0  0  0  0  0  0  0  0
    5.4062   -4.4081    0.9714 C   0  0  2  0  0  0  0  0  0  0  0  0
    6.1737   -4.8509   -0.2633 C   0  0  0  0  0  0  0  0  0  0  0  0
    7.1681   -3.7269   -0.7156 C   0  0  0  0  0  0  0  0  0  0  0  0
    7.1644   -2.4241    0.1291 C   0  0  0  0  0  0  0  0  0  0  0  0
    8.2143   -1.8459    0.3880 O   0  0  0  0  0  0  0  0  0  0  0  0
    5.8066   -1.8463    0.5862 C   0  0  1  0  0  0  0  0  0  0  0  0
    5.3309   -1.0164   -0.4987 O   0  0  0  0  0  0  0  0  0  0  0  0
    4.3248   -1.7027   -1.1201 C   0  0  0  0  0  0  0  0  0  0  0  0
    3.5658   -1.4145   -2.2795 C   0  0  0  0  0  0  0  0  0  0  0  0
    3.8094   -0.2543   -2.9769 O   0  0  0  0  0  0  0  0  0  0  0  0
    3.7303   -0.2404   -4.3113 C   0  0  0  0  0  0  0  0  0  0  0  0
    3.5068    1.1331   -4.8932 C   0  0  0  0  0  0  0  0  0  0  0  0
    3.8226   -1.2057   -5.0499 O   0  0  0  0  0  0  0  0  0  0  0  0
    2.5324   -2.3237   -2.6712 C   0  0  0  0  0  0  0  0  0  0  0  0
    2.2010   -3.4603   -1.8991 C   0  0  0  0  0  0  0  0  0  0  0  0
    2.9400   -3.7385   -0.7424 C   0  0  0  0  0  0  0  0  0  0  0  0
    3.9592   -2.8350   -0.4514 C   0  0  0  0  0  0  0  0  0  0  0  0
    4.8155   -3.0256    0.7558 C   0  0  1  0  0  0  0  0  0  0  0  0
    3.9096   -3.3039    1.8466 O   0  0  0  0  0  0  0  0  0  0  0  0
    3.9534   -4.6994    1.3905 C   0  0  1  0  0  0  0  0  0  0  0  0
    2.8777   -4.8748    0.2774 C   0  0  0  0  0  0  0  0  0  0  0  0
    7.2789   -5.5265    3.5147 H   0  0  0  0  0  0  0  0  0  0  0  0
    7.2786   -6.2526    1.9245 H   0  0  0  0  0  0  0  0  0  0  0  0
    5.8136   -6.2944    2.9218 H   0  0  0  0  0  0  0  0  0  0  0  0
    6.7076   -5.7870   -0.0902 H   0  0  0  0  0  0  0  0  0  0  0  0
    5.4768   -5.0493   -1.0878 H   0  0  0  0  0  0  0  0  0  0  0  0
    8.1901   -4.1105   -0.7416 H   0  0  0  0  0  0  0  0  0  0  0  0
    6.9360   -3.4342   -1.7398 H   0  0  0  0  0  0  0  0  0  0  0  0
    5.9304   -1.2746    1.5072 H   0  0  0  0  0  0  0  0  0  0  0  0
    4.2041    1.8177   -4.4294 H   0  0  0  0  0  0  0  0  0  0  0  0
    2.4832    1.4673   -4.7232 H   0  0  0  0  0  0  0  0  0  0  0  0
    3.6653    1.0779   -5.9670 H   0  0  0  0  0  0  0  0  0  0  0  0
    1.9094   -2.1380   -3.5240 H   0  0  0  0  0  0  0  0  0  0  0  0
    1.4046   -4.1065   -2.2027 H   0  0  0  0  0  0  0  0  0  0  0  0
    3.8874   -5.4148    2.2098 H   0  0  0  0  0  0  0  0  0  0  0  0
    1.8811   -4.8972    0.7166 H   0  0  0  0  0  0  0  0  0  0  0  0
    3.0331   -5.8292   -0.2334 H   0  0  0  0  0  0  0  0  0  0  0  0
  1  2  1  0
  1 24  1  0
  1 25  1  0
  1 26  1  0
  3  2  1  1
  3 20  1  0
  3 22  1  0
  3  4  1  0
  4  5  1  0
  4 27  1  0
  4 28  1  0
  5  6  1  0
  5 29  1  0
  5 30  1  0
  6  7  2  0
  6  8  1  0
  8 20  1  0
  8  9  1  0
  8 31  1  1
  9 10  1  0
 10 19  2  0
 10 11  1  0
 11 12  1  0
 11 16  2  0
 12 13  1  0
 13 14  1  0
 13 15  2  0
 14 32  1  0
 14 33  1  0
 14 34  1  0
 16 17  1  0
 16 35  1  0
 17 18  2  0
 17 36  1  0
 18 23  1  0
 18 19  1  0
 19 20  1  0
 20 21  1  1
 21 22  1  0
 22 23  1  0
 22 37  1  1
 23 38  1  0
 23 39  1  0
M  END
>  <i_m_ct_stereo_status>  (63) 
1

>  <s_m_source_file>  (63) 
/var/tmp/pbs.5076255.sched01/tmpgn4o3w3f/0whq8s7pj.sdf

>  <i_m_source_file_index>  (63) 
34

>  <i_lp_mmshare_version>  (63) 
48012

>  <i_f3d_flags>  (63) 
0

>  <s_epik_input>  (63) 
W0NIM11PW0NAXTEoW0NAQF0yMzQpW0NAQEhdKE80KVtDSDJdYzVjM2MoYyhbY0hdW2NIXTUpT0MoPU8pW0NIM10pT1tDQEBIXTJDKD1PKVtDSDJdW0NIMl0x

>  <s_epik_cmdline>  (63) 
J2VwaWtfcHl0aG9uJywgJy1waHQnLCAnMi4wJywgJy1waCcsICc3LjAnLCAnLXRuJywgJzgnLCAnLW1hJywgJzIwMCcsICctaW1hZScsICc8aW5maWxlLm1hZT4nLCAnLW9tYWUnLCAnPG91dGZpbGUubWFlPic=

>  <r_lp_tautomer_probability>  (63) 
1

>  <r_epik_Ionization_Penalty>  (63) 
1.05823e-10

>  <r_epik_Ionization_Penalty_Charging>  (63) 
0

>  <r_epik_Ionization_Penalty_Neutral>  (63) 
1.05823e-10

>  <r_epik_State_Penalty>  (63) 
-0

>  <r_epik_Charging_Adjusted_Penalty>  (63) 
0

>  <i_epik_Tot_Q>  (63) 
0

>  <i_epik_Tot_abs_Q>  (63) 
0

>  <s_lp_Force_Field>  (63) 
OPLS3e

>  <r_lp_Energy>  (63) 
78.2267

>  <b_lp_Chiralities_Consistent>  (63) 
1

>  <s_lp_Variant>  (63) 
20:0-1

>  <s_i_glide_gridfile>  (63) 
pfpi4k_grid

>  <i_i_glide_lignum>  (63) 
34

>  <i_i_glide_rotatable_bonds>  (63) 
3

>  <r_i_docking_score>  (63) 
-3.96957

>  <r_i_glide_ligand_efficiency>  (63) 
-0.17259

>  <r_i_glide_ligand_efficiency_sa>  (63) 
-0.490823

>  <r_i_glide_ligand_efficiency_ln>  (63) 
-0.959878

>  <r_i_glide_gscore>  (63) 
-3.96957

>  <r_i_glide_lipo>  (63) 
-0.522849

>  <r_i_glide_hbond>  (63) 
-0.320774

>  <r_i_glide_metal>  (63) 
-0

>  <r_i_glide_rewards>  (63) 
-1.72901

>  <r_i_glide_evdw>  (63) 
-21.6039

>  <r_i_glide_ecoul>  (63) 
-3.35196

>  <r_i_glide_erotb>  (63) 
0.186058

>  <r_i_glide_esite>  (63) 
0

>  <r_i_glide_emodel>  (63) 
-30.5609

>  <r_i_glide_energy>  (63) 
-24.9559

>  <r_i_glide_einternal>  (63) 
1.96958

>  <r_i_glide_intrahb_reward>  (63) 
-0

>  <i_i_glide_confnum>  (63) 
4

>  <i_i_glide_posenum>  (63) 
5

>  <r_i_glide_eff_state_penalty>  (63) 
0

>  <ligand_id>  (63) 
20

>  <original_smiles>  (63) 
COC12CCC(=O)C3Oc4c(OC(C)=O)ccc5c4C31OC2C5

>  <smiles>  (63) 
[H]c1c([H])c2c3c(c1OC(=O)C([H])([H])[H])OC1([H])C(=O)C([H])([H])C([H])([H])C4(OC([H])([H])[H])C([H])(OC314)C2([H])[H]

$$$$
20:0:1
     RDKit          3D

 39 43  0  0  1  0  0  0  0  0999 V2000
   -0.9715   -7.1190    4.8678 C   0  0  0  0  0  0  0  0  0  0  0  0
   -0.2171   -6.1500    4.1488 O   0  0  0  0  0  0  0  0  0  0  0  0
    1.0396   -6.5833    3.6219 C   0  0  2  0  0  0  0  0  0  0  0  0
    2.0990   -6.6364    4.7281 C   0  0  0  0  0  0  0  0  0  0  0  0
    2.5281   -5.1846    5.1487 C   0  0  0  0  0  0  0  0  0  0  0  0
    1.8220   -4.0205    4.4051 C   0  0  0  0  0  0  0  0  0  0  0  0
    1.3992   -3.0406    5.0187 O   0  0  0  0  0  0  0  0  0  0  0  0
    1.6461   -4.1324    2.8752 C   0  0  1  0  0  0  0  0  0  0  0  0
    2.8618   -3.6537    2.2513 O   0  0  0  0  0  0  0  0  0  0  0  0
    3.5495   -4.7524    1.8080 C   0  0  0  0  0  0  0  0  0  0  0  0
    4.8178   -4.8804    1.1971 C   0  0  0  0  0  0  0  0  0  0  0  0
    5.5908   -3.7672    0.9826 O   0  0  0  0  0  0  0  0  0  0  0  0
    5.7972   -3.2964   -0.2784 C   0  0  0  0  0  0  0  0  0  0  0  0
    5.0128   -3.9891   -1.4035 C   0  0  0  0  0  0  0  0  0  0  0  0
    6.5656   -2.3712   -0.5373 O   0  0  0  0  0  0  0  0  0  0  0  0
    5.2749   -6.1694    0.8030 C   0  0  0  0  0  0  0  0  0  0  0  0
    4.4634   -7.3286    0.9284 C   0  0  0  0  0  0  0  0  0  0  0  0
    3.1902   -7.1991    1.5088 C   0  0  0  0  0  0  0  0  0  0  0  0
    2.8320   -5.9151    1.9120 C   0  0  0  0  0  0  0  0  0  0  0  0
    1.4991   -5.6349    2.5152 C   0  0  1  0  0  0  0  0  0  0  0  0
    0.5175   -6.2597    1.6500 O   0  0  0  0  0  0  0  0  0  0  0  0
    0.8222   -7.4998    2.3969 C   0  0  1  0  0  0  0  0  0  0  0  0
    2.0606   -8.1964    1.7652 C   0  0  0  0  0  0  0  0  0  0  0  0
   -1.9001   -6.6473    5.1870 H   0  0  0  0  0  0  0  0  0  0  0  0
   -0.4504   -7.4764    5.7567 H   0  0  0  0  0  0  0  0  0  0  0  0
   -1.2462   -7.9834    4.2626 H   0  0  0  0  0  0  0  0  0  0  0  0
    1.7648   -7.1992    5.6019 H   0  0  0  0  0  0  0  0  0  0  0  0
    2.9937   -7.1557    4.3709 H   0  0  0  0  0  0  0  0  0  0  0  0
    2.3665   -5.0490    6.2203 H   0  0  0  0  0  0  0  0  0  0  0  0
    3.6009   -5.0608    4.9833 H   0  0  0  0  0  0  0  0  0  0  0  0
    0.7804   -3.5417    2.5771 H   0  0  0  0  0  0  0  0  0  0  0  0
    3.9575   -4.0594   -1.1420 H   0  0  0  0  0  0  0  0  0  0  0  0
    5.3900   -4.9974   -1.5652 H   0  0  0  0  0  0  0  0  0  0  0  0
    5.0881   -3.4555   -2.3459 H   0  0  0  0  0  0  0  0  0  0  0  0
    6.2397   -6.2616    0.3377 H   0  0  0  0  0  0  0  0  0  0  0  0
    4.8002   -8.2821    0.5556 H   0  0  0  0  0  0  0  0  0  0  0  0
   -0.0435   -8.1587    2.4907 H   0  0  0  0  0  0  0  0  0  0  0  0
    1.7847   -8.6863    0.8368 H   0  0  0  0  0  0  0  0  0  0  0  0
    2.4326   -8.9767    2.4277 H   0  0  0  0  0  0  0  0  0  0  0  0
  1  2  1  0
  1 24  1  0
  1 25  1  0
  1 26  1  0
  3  2  1  1
  3 20  1  0
  3 22  1  0
  3  4  1  0
  4  5  1  0
  4 27  1  0
  4 28  1  0
  5  6  1  0
  5 29  1  0
  5 30  1  0
  6  7  2  0
  6  8  1  0
  8 20  1  0
  8  9  1  0
  8 31  1  6
  9 10  1  0
 10 19  2  0
 10 11  1  0
 11 12  1  0
 11 16  2  0
 12 13  1  0
 13 14  1  0
 13 15  2  0
 14 32  1  0
 14 33  1  0
 14 34  1  0
 16 17  1  0
 16 35  1  0
 17 18  2  0
 17 36  1  0
 18 23  1  0
 18 19  1  0
 19 20  1  0
 20 21  1  6
 21 22  1  0
 22 23  1  0
 22 37  1  1
 23 38  1  0
 23 39  1  0
M  END
>  <i_m_ct_stereo_status>  (64) 
1

>  <s_m_source_file>  (64) 
/var/tmp/pbs.5076255.sched01/tmpgn4o3w3f/0whq8s7pj.sdf

>  <i_m_source_file_index>  (64) 
34

>  <i_lp_mmshare_version>  (64) 
48012

>  <i_f3d_flags>  (64) 
0

>  <s_epik_input>  (64) 
W0NIM11PW0NAXTEoW0NAQF0yMzQpW0NAQEhdKE80KVtDSDJdYzVjM2MoYyhbY0hdW2NIXTUpT0MoPU8pW0NIM10pT1tDQEBIXTJDKD1PKVtDSDJdW0NIMl0x

>  <s_epik_cmdline>  (64) 
J2VwaWtfcHl0aG9uJywgJy1waHQnLCAnMi4wJywgJy1waCcsICc3LjAnLCAnLXRuJywgJzgnLCAnLW1hJywgJzIwMCcsICctaW1hZScsICc8aW5maWxlLm1hZT4nLCAnLW9tYWUnLCAnPG91dGZpbGUubWFlPic=

>  <r_lp_tautomer_probability>  (64) 
1

>  <r_epik_Ionization_Penalty>  (64) 
1.05823e-10

>  <r_epik_Ionization_Penalty_Charging>  (64) 
0

>  <r_epik_Ionization_Penalty_Neutral>  (64) 
1.05823e-10

>  <r_epik_State_Penalty>  (64) 
-0

>  <r_epik_Charging_Adjusted_Penalty>  (64) 
0

>  <i_epik_Tot_Q>  (64) 
0

>  <i_epik_Tot_abs_Q>  (64) 
0

>  <s_lp_Force_Field>  (64) 
OPLS3e

>  <r_lp_Energy>  (64) 
78.2267

>  <b_lp_Chiralities_Consistent>  (64) 
1

>  <s_lp_Variant>  (64) 
20:0-1

>  <s_i_glide_gridfile>  (64) 
pfpi4k_grid

>  <i_i_glide_lignum>  (64) 
34

>  <i_i_glide_rotatable_bonds>  (64) 
3

>  <r_i_docking_score>  (64) 
-3.40472

>  <r_i_glide_ligand_efficiency>  (64) 
-0.148031

>  <r_i_glide_ligand_efficiency_sa>  (64) 
-0.420981

>  <r_i_glide_ligand_efficiency_ln>  (64) 
-0.823291

>  <r_i_glide_gscore>  (64) 
-3.40472

>  <r_i_glide_lipo>  (64) 
-0.327404

>  <r_i_glide_hbond>  (64) 
-0.205328

>  <r_i_glide_metal>  (64) 
-0

>  <r_i_glide_rewards>  (64) 
-1.34707

>  <r_i_glide_evdw>  (64) 
-18.4514

>  <r_i_glide_ecoul>  (64) 
-5.25602

>  <r_i_glide_erotb>  (64) 
0.186058

>  <r_i_glide_esite>  (64) 
0

>  <r_i_glide_emodel>  (64) 
-27.1292

>  <r_i_glide_energy>  (64) 
-23.7074

>  <r_i_glide_einternal>  (64) 
4.68797

>  <r_i_glide_intrahb_reward>  (64) 
-0

>  <i_i_glide_confnum>  (64) 
5

>  <i_i_glide_posenum>  (64) 
1

>  <r_i_glide_eff_state_penalty>  (64) 
0

>  <ligand_id>  (64) 
20

>  <original_smiles>  (64) 
COC12CCC(=O)C3Oc4c(OC(C)=O)ccc5c4C31OC2C5

>  <smiles>  (64) 
[H]c1c([H])c2c3c(c1OC(=O)C([H])([H])[H])OC1([H])C(=O)C([H])([H])C([H])([H])C4(OC([H])([H])[H])C([H])(OC314)C2([H])[H]

$$$$
20:0:2
     RDKit          3D

 39 43  0  0  1  0  0  0  0  0999 V2000
    3.8436   -0.0182    1.8012 C   0  0  0  0  0  0  0  0  0  0  0  0
    3.1218    0.2714    2.9934 O   0  0  0  0  0  0  0  0  0  0  0  0
    1.9444    1.0787    2.8554 C   0  0  2  0  0  0  0  0  0  0  0  0
    2.3155    2.5659    2.8121 C   0  0  0  0  0  0  0  0  0  0  0  0
    2.7791    3.0675    4.2204 C   0  0  0  0  0  0  0  0  0  0  0  0
    2.7673    2.0069    5.3510 C   0  0  0  0  0  0  0  0  0  0  0  0
    3.6911    1.9394    6.1559 O   0  0  0  0  0  0  0  0  0  0  0  0
    1.5574    1.0476    5.4482 C   0  0  1  0  0  0  0  0  0  0  0  0
    0.5387    1.7284    6.2213 O   0  0  0  0  0  0  0  0  0  0  0  0
   -0.4351    2.1309    5.3445 C   0  0  0  0  0  0  0  0  0  0  0  0
   -1.6192    2.8890    5.5218 C   0  0  0  0  0  0  0  0  0  0  0  0
   -1.9613    3.4059    6.7441 O   0  0  0  0  0  0  0  0  0  0  0  0
   -2.2182    2.5808    7.7732 C   0  0  0  0  0  0  0  0  0  0  0  0
   -2.5669    3.3164    9.0560 C   0  0  0  0  0  0  0  0  0  0  0  0
   -2.1848    1.3462    7.7313 O   0  0  0  0  0  0  0  0  0  0  0  0
   -2.4689    3.1331    4.4076 C   0  0  0  0  0  0  0  0  0  0  0  0
   -2.1919    2.6125    3.1172 C   0  0  0  0  0  0  0  0  0  0  0  0
   -1.0283    1.8428    2.9448 C   0  0  0  0  0  0  0  0  0  0  0  0
   -0.2364    1.6648    4.0764 C   0  0  0  0  0  0  0  0  0  0  0  0
    0.9987    0.8339    4.0226 C   0  0  1  0  0  0  0  0  0  0  0  0
    0.6095   -0.4042    3.3813 O   0  0  0  0  0  0  0  0  0  0  0  0
    0.8260    0.3125    2.1132 C   0  0  1  0  0  0  0  0  0  0  0  0
   -0.4730    1.0742    1.7459 C   0  0  0  0  0  0  0  0  0  0  0  0
    4.6958   -0.6531    2.0519 H   0  0  0  0  0  0  0  0  0  0  0  0
    4.2063    0.8847    1.3134 H   0  0  0  0  0  0  0  0  0  0  0  0
    3.2577   -0.5740    1.0726 H   0  0  0  0  0  0  0  0  0  0  0  0
    3.0903    2.7692    2.0860 H   0  0  0  0  0  0  0  0  0  0  0  0
    1.4556    3.1652    2.4982 H   0  0  0  0  0  0  0  0  0  0  0  0
    3.7859    3.4822    4.1509 H   0  0  0  0  0  0  0  0  0  0  0  0
    2.1388    3.8881    4.5401 H   0  0  0  0  0  0  0  0  0  0  0  0
    1.8461    0.1147    5.9332 H   0  0  0  0  0  0  0  0  0  0  0  0
   -3.3221    4.0794    8.8637 H   0  0  0  0  0  0  0  0  0  0  0  0
   -1.6861    3.8074    9.4749 H   0  0  0  0  0  0  0  0  0  0  0  0
   -2.9625    2.6308    9.8052 H   0  0  0  0  0  0  0  0  0  0  0  0
   -3.3739    3.6887    4.5625 H   0  0  0  0  0  0  0  0  0  0  0  0
   -2.8706    2.7708    2.2929 H   0  0  0  0  0  0  0  0  0  0  0  0
    1.1830   -0.3391    1.3215 H   0  0  0  0  0  0  0  0  0  0  0  0
   -1.2439    0.3911    1.3973 H   0  0  0  0  0  0  0  0  0  0  0  0
   -0.2562    1.7565    0.9248 H   0  0  0  0  0  0  0  0  0  0  0  0
  1  2  1  0
  1 24  1  0
  1 25  1  0
  1 26  1  0
  3  2  1  1
  3 20  1  0
  3 22  1  0
  3  4  1  0
  4  5  1  0
  4 27  1  0
  4 28  1  0
  5  6  1  0
  5 29  1  0
  5 30  1  0
  6  7  2  0
  6  8  1  0
  8 20  1  0
  8  9  1  0
  8 31  1  1
  9 10  1  0
 10 19  2  0
 10 11  1  0
 11 12  1  0
 11 16  2  0
 12 13  1  0
 13 14  1  0
 13 15  2  0
 14 32  1  0
 14 33  1  0
 14 34  1  0
 16 17  1  0
 16 35  1  0
 17 18  2  0
 17 36  1  0
 18 23  1  0
 18 19  1  0
 19 20  1  0
 20 21  1  1
 21 22  1  0
 22 23  1  0
 22 37  1  6
 23 38  1  0
 23 39  1  0
M  END
>  <i_m_ct_stereo_status>  (65) 
1

>  <s_m_source_file>  (65) 
/var/tmp/pbs.5076255.sched01/tmpgn4o3w3f/0whq8s7pj.sdf

>  <i_m_source_file_index>  (65) 
34

>  <i_lp_mmshare_version>  (65) 
48012

>  <i_f3d_flags>  (65) 
0

>  <s_epik_input>  (65) 
W0NIM11PW0NAXTEoW0NAQF0yMzQpW0NAQEhdKE80KVtDSDJdYzVjM2MoYyhbY0hdW2NIXTUpT0MoPU8pW0NIM10pT1tDQEBIXTJDKD1PKVtDSDJdW0NIMl0x

>  <s_epik_cmdline>  (65) 
J2VwaWtfcHl0aG9uJywgJy1waHQnLCAnMi4wJywgJy1waCcsICc3LjAnLCAnLXRuJywgJzgnLCAnLW1hJywgJzIwMCcsICctaW1hZScsICc8aW5maWxlLm1hZT4nLCAnLW9tYWUnLCAnPG91dGZpbGUubWFlPic=

>  <r_lp_tautomer_probability>  (65) 
1

>  <r_epik_Ionization_Penalty>  (65) 
1.05823e-10

>  <r_epik_Ionization_Penalty_Charging>  (65) 
0

>  <r_epik_Ionization_Penalty_Neutral>  (65) 
1.05823e-10

>  <r_epik_State_Penalty>  (65) 
-0

>  <r_epik_Charging_Adjusted_Penalty>  (65) 
0

>  <i_epik_Tot_Q>  (65) 
0

>  <i_epik_Tot_abs_Q>  (65) 
0

>  <s_lp_Force_Field>  (65) 
OPLS3e

>  <r_lp_Energy>  (65) 
78.2267

>  <b_lp_Chiralities_Consistent>  (65) 
1

>  <s_lp_Variant>  (65) 
20:0-1

>  <s_i_glide_gridfile>  (65) 
pfpi4k_grid

>  <i_i_glide_lignum>  (65) 
34

>  <i_i_glide_rotatable_bonds>  (65) 
3

>  <r_i_docking_score>  (65) 
-2.77863

>  <r_i_glide_ligand_efficiency>  (65) 
-0.12081

>  <r_i_glide_ligand_efficiency_sa>  (65) 
-0.343568

>  <r_i_glide_ligand_efficiency_ln>  (65) 
-0.671899

>  <r_i_glide_gscore>  (65) 
-2.77863

>  <r_i_glide_lipo>  (65) 
-0.0500321

>  <r_i_glide_hbond>  (65) 
-0.134753

>  <r_i_glide_metal>  (65) 
-0

>  <r_i_glide_rewards>  (65) 
-1.30776

>  <r_i_glide_evdw>  (65) 
-19.9047

>  <r_i_glide_ecoul>  (65) 
-3.17854

>  <r_i_glide_erotb>  (65) 
0.186058

>  <r_i_glide_esite>  (65) 
-0.000130809

>  <r_i_glide_emodel>  (65) 
-27.4435

>  <r_i_glide_energy>  (65) 
-23.0832

>  <r_i_glide_einternal>  (65) 
0.667022

>  <r_i_glide_intrahb_reward>  (65) 
-0

>  <i_i_glide_confnum>  (65) 
4

>  <i_i_glide_posenum>  (65) 
28

>  <r_i_glide_eff_state_penalty>  (65) 
0

>  <ligand_id>  (65) 
20

>  <original_smiles>  (65) 
COC12CCC(=O)C3Oc4c(OC(C)=O)ccc5c4C31OC2C5

>  <smiles>  (65) 
[H]c1c([H])c2c3c(c1OC(=O)C([H])([H])[H])OC1([H])C(=O)C([H])([H])C([H])([H])C4(OC([H])([H])[H])C([H])(OC314)C2([H])[H]

$$$$
22:0:0
     RDKit          3D

 99106  0  0  1  0  0  0  0  0999 V2000
    5.7694   -5.1338    1.7184 C   0  0  0  0  0  0  0  0  0  0  0  0
    5.5083   -5.3170    3.2190 C   0  0  2  0  0  0  0  0  0  0  0  0
    6.4251   -6.2566    3.9783 C   0  0  0  0  0  0  0  0  0  0  0  0
    5.4928   -6.8559    5.0308 C   0  0  0  0  0  0  0  0  0  0  0  0
    4.1098   -6.2459    4.7673 C   0  0  1  0  0  0  0  0  0  0  0  0
    3.8793   -5.1546    5.6353 O   0  0  0  0  0  0  0  0  0  0  0  0
    2.6102   -4.4537    5.7286 C   0  0  2  0  0  0  0  0  0  0  0  0
    2.0297   -4.8697    7.2320 C   0  0  2  0  0  0  0  0  0  0  0  0
    2.4031   -6.3635    7.7576 C   0  0  1  0  0  0  0  0  0  0  0  0
    2.7875   -6.4421    9.2485 C   0  0  0  0  0  0  0  0  0  0  0  0
    1.3836   -7.5349    7.3248 C   0  0  0  0  0  0  0  0  0  0  0  0
    0.7140   -7.2328    5.9145 C   0  0  1  0  0  0  0  0  0  0  0  0
   -0.4087   -7.8063    5.2669 O   0  0  0  0  0  0  0  0  0  0  0  0
   -0.3242   -7.6822    3.8131 C   0  0  0  0  0  0  0  0  0  0  0  0
    0.5354   -8.8325    3.1933 C   0  0  0  0  0  0  0  0  0  0  0  0
   -1.7592   -7.8653    3.3517 C   0  0  0  0  0  0  0  0  0  0  0  0
    0.0348   -6.3587    3.3180 O   0  0  0  0  0  0  0  0  0  0  0  0
    1.4690   -5.9206    3.6560 O   0  0  0  0  0  0  0  0  0  0  0  0
    1.4030   -4.9167    4.7280 C   0  0  2  0  0  0  0  0  0  0  0  0
    0.8458   -3.6060    4.0801 C   0  0  0  0  0  0  0  0  0  0  0  0
    1.8738   -2.4619    4.3049 C   0  0  1  0  0  0  0  0  0  0  0  0
    1.5079   -0.9163    4.2617 C   0  0  1  0  0  0  0  0  0  0  0  0
    0.1620   -0.4193    4.8415 C   0  0  0  0  0  0  0  0  0  0  0  0
   -0.7800   -1.1533    5.1001 O   0  0  0  0  0  0  0  0  0  0  0  0
   -0.0713    1.0973    4.8922 C   0  0  0  0  0  0  0  0  0  0  0  0
    1.1472    1.9273    5.3422 C   0  0  2  0  0  0  0  0  0  0  0  0
    0.8497    3.4428    5.1889 C   0  0  0  0  0  0  0  0  0  0  0  0
    0.8107    3.9077    3.7199 C   0  0  1  0  0  0  0  0  0  0  0  0
    0.7376    5.3244    3.6749 O   0  0  0  0  0  0  0  0  0  0  0  0
    2.0252    3.4256    2.9020 C   0  0  0  0  0  0  0  0  0  0  0  0
    2.3259    1.9288    3.1168 C   0  0  0  0  0  0  0  0  0  0  0  0
    2.4629    1.5204    4.6124 C   0  0  1  0  0  0  0  0  0  0  0  0
    3.6779    2.2745    5.2207 C   0  0  0  0  0  0  0  0  0  0  0  0
    2.6916   -0.0232    4.7507 C   0  0  1  0  0  0  0  0  0  0  0  0
    3.2139   -0.4609    6.1625 C   0  0  0  0  0  0  0  0  0  0  0  0
    2.9753   -1.9345    6.5795 C   0  0  0  0  0  0  0  0  0  0  0  0
    2.9118   -2.9113    5.3873 C   0  0  1  0  0  0  0  0  0  0  0  0
    4.3066   -2.7801    4.7046 C   0  0  0  0  0  0  0  0  0  0  0  0
    0.5040   -5.6845    5.7180 C   0  0  1  0  0  0  0  0  0  0  0  0
    0.4736   -4.8735    7.0576 C   0  0  0  0  0  0  0  0  0  0  0  0
   -0.4188   -5.4813    8.1898 C   0  0  0  0  0  0  0  0  0  0  0  0
   -0.1367   -3.4581    6.9981 C   0  0  0  0  0  0  0  0  0  0  0  0
    4.1803   -5.8253    3.4368 O   0  0  0  0  0  0  0  0  0  0  0  0
    6.7179   -4.6042    1.6153 H   0  0  0  0  0  0  0  0  0  0  0  0
    4.9959   -4.4994    1.2721 H   0  0  0  0  0  0  0  0  0  0  0  0
    5.8095   -6.0778    1.1787 H   0  0  0  0  0  0  0  0  0  0  0  0
    5.7204   -4.4005    3.6763 H   0  0  0  0  0  0  0  0  0  0  0  0
    6.8781   -6.9936    3.3146 H   0  0  0  0  0  0  0  0  0  0  0  0
    7.1952   -5.6396    4.4397 H   0  0  0  0  0  0  0  0  0  0  0  0
    5.4578   -7.9348    4.8486 H   0  0  0  0  0  0  0  0  0  0  0  0
    5.8107   -6.6798    6.0666 H   0  0  0  0  0  0  0  0  0  0  0  0
    3.3578   -7.0169    4.8937 H   0  0  0  0  0  0  0  0  0  0  0  0
    2.3543   -4.1489    7.9695 H   0  0  0  0  0  0  0  0  0  0  0  0
    3.3588   -6.6403    7.2999 H   0  0  0  0  0  0  0  0  0  0  0  0
    1.9830   -6.2373    9.9575 H   0  0  0  0  0  0  0  0  0  0  0  0
    3.6017   -5.7604    9.4934 H   0  0  0  0  0  0  0  0  0  0  0  0
    3.1496   -7.4385    9.4934 H   0  0  0  0  0  0  0  0  0  0  0  0
    1.9536   -8.4496    7.2714 H   0  0  0  0  0  0  0  0  0  0  0  0
    0.6580   -7.7718    8.1103 H   0  0  0  0  0  0  0  0  0  0  0  0
    1.4613   -7.8223    5.3222 H   0  0  0  0  0  0  0  0  0  0  0  0
    1.6034   -8.7376    3.3736 H   0  0  0  0  0  0  0  0  0  0  0  0
    0.4061   -8.9049    2.1130 H   0  0  0  0  0  0  0  0  0  0  0  0
    0.2313   -9.8027    3.5969 H   0  0  0  0  0  0  0  0  0  0  0  0
   -2.3831   -7.0631    3.7473 H   0  0  0  0  0  0  0  0  0  0  0  0
   -2.1832   -8.8075    3.6984 H   0  0  0  0  0  0  0  0  0  0  0  0
   -1.8543   -7.8491    2.2644 H   0  0  0  0  0  0  0  0  0  0  0  0
    0.6987   -3.7342    3.0083 H   0  0  0  0  0  0  0  0  0  0  0  0
   -0.1489   -3.3729    4.4246 H   0  0  0  0  0  0  0  0  0  0  0  0
    2.3760   -2.5210    3.3417 H   0  0  0  0  0  0  0  0  0  0  0  0
    1.3933   -0.7038    3.2016 H   0  0  0  0  0  0  0  0  0  0  0  0
   -0.4006    1.4002    3.8996 H   0  0  0  0  0  0  0  0  0  0  0  0
   -0.9089    1.2803    5.5612 H   0  0  0  0  0  0  0  0  0  0  0  0
    1.2760    1.7385    6.4054 H   0  0  0  0  0  0  0  0  0  0  0  0
   -0.1033    3.6750    5.6638 H   0  0  0  0  0  0  0  0  0  0  0  0
    1.5935    4.0177    5.7422 H   0  0  0  0  0  0  0  0  0  0  0  0
   -0.0995    3.5379    3.2474 H   0  0  0  0  0  0  0  0  0  0  0  0
    0.6172    5.5791    2.7796 H   0  0  0  0  0  0  0  0  0  0  0  0
    1.8307    3.5856    1.8460 H   0  0  0  0  0  0  0  0  0  0  0  0
    2.9104    4.0218    3.1157 H   0  0  0  0  0  0  0  0  0  0  0  0
    1.5212    1.3715    2.6442 H   0  0  0  0  0  0  0  0  0  0  0  0
    3.2276    1.6582    2.5658 H   0  0  0  0  0  0  0  0  0  0  0  0
    4.6130    1.9257    4.7835 H   0  0  0  0  0  0  0  0  0  0  0  0
    3.7598    2.1486    6.2992 H   0  0  0  0  0  0  0  0  0  0  0  0
    3.6559    3.3453    5.0589 H   0  0  0  0  0  0  0  0  0  0  0  0
    3.5014   -0.2068    4.0264 H   0  0  0  0  0  0  0  0  0  0  0  0
    4.2817   -0.2794    6.1940 H   0  0  0  0  0  0  0  0  0  0  0  0
    2.8053    0.1642    6.9652 H   0  0  0  0  0  0  0  0  0  0  0  0
    3.7629   -2.2648    7.2741 H   0  0  0  0  0  0  0  0  0  0  0  0
    2.0684   -1.9468    7.1536 H   0  0  0  0  0  0  0  0  0  0  0  0
    4.6676   -1.7724    4.4924 H   0  0  0  0  0  0  0  0  0  0  0  0
    4.2676   -3.2682    3.7771 H   0  0  0  0  0  0  0  0  0  0  0  0
    5.0970   -3.1935    5.3274 H   0  0  0  0  0  0  0  0  0  0  0  0
    1.4452   -6.1291    5.6402 H   0  0  0  0  0  0  0  0  0  0  0  0
   -1.1981   -4.8174    8.5628 H   0  0  0  0  0  0  0  0  0  0  0  0
    0.1352   -5.7750    9.0771 H   0  0  0  0  0  0  0  0  0  0  0  0
   -0.9766   -6.3421    7.8348 H   0  0  0  0  0  0  0  0  0  0  0  0
   -1.1605   -3.4756    6.6276 H   0  0  0  0  0  0  0  0  0  0  0  0
    0.4141   -2.7910    6.3804 H   0  0  0  0  0  0  0  0  0  0  0  0
   -0.1378   -2.9773    7.9746 H   0  0  0  0  0  0  0  0  0  0  0  0
  1  2  1  0
  1 44  1  0
  1 45  1  0
  1 46  1  0
  2 43  1  0
  2  3  1  0
  2 47  1  1
  3  4  1  0
  3 48  1  0
  3 49  1  0
  4  5  1  0
  4 50  1  0
  4 51  1  0
  5  6  1  0
  5 43  1  0
  5 52  1  6
  7  6  1  6
  7 19  1  0
  7 37  1  0
  7  8  1  0
  8 40  1  0
  8  9  1  0
  8 53  1  1
  9 10  1  0
  9 11  1  0
  9 54  1  6
 10 55  1  0
 10 56  1  0
 10 57  1  0
 11 12  1  0
 11 58  1  0
 11 59  1  0
 12 39  1  0
 12 13  1  0
 12 60  1  6
 13 14  1  0
 14 15  1  0
 14 16  1  0
 14 17  1  0
 15 61  1  0
 15 62  1  0
 15 63  1  0
 16 64  1  0
 16 65  1  0
 16 66  1  0
 17 18  1  0
 19 18  1  6
 19 20  1  0
 19 39  1  0
 20 21  1  0
 20 67  1  0
 20 68  1  0
 21 37  1  0
 21 22  1  0
 21 69  1  6
 22 34  1  0
 22 23  1  0
 22 70  1  6
 23 24  2  0
 23 25  1  0
 25 26  1  0
 25 71  1  0
 25 72  1  0
 26 32  1  0
 26 27  1  0
 26 73  1  1
 27 28  1  0
 27 74  1  0
 27 75  1  0
 28 29  1  0
 28 30  1  0
 28 76  1  6
 29 77  1  0
 30 31  1  0
 30 78  1  0
 30 79  1  0
 31 32  1  0
 31 80  1  0
 31 81  1  0
 32 33  1  1
 32 34  1  0
 33 82  1  0
 33 83  1  0
 33 84  1  0
 34 35  1  0
 34 85  1  6
 35 36  1  0
 35 86  1  0
 35 87  1  0
 36 37  1  0
 36 88  1  0
 36 89  1  0
 37 38  1  6
 38 90  1  0
 38 91  1  0
 38 92  1  0
 39 40  1  0
 39 93  1  6
 40 41  1  0
 40 42  1  0
 41 94  1  0
 41 95  1  0
 41 96  1  0
 42 97  1  0
 42 98  1  0
 42 99  1  0
M  END
>  <i_m_ct_stereo_status>  (66) 
1

>  <s_m_source_file>  (66) 
/var/tmp/pbs.5076255.sched01/tmpgn4o3w3f/0whq8s7pj.sdf

>  <i_m_source_file_index>  (66) 
36

>  <i_lp_mmshare_version>  (66) 
48012

>  <i_f3d_flags>  (66) 
0

>  <s_epik_input>  (66) 
TzFPQyhbQ0gzXSkoW0NIM10pT1tDQEBIXShbQ0BASF0yQzMoW0NIM10pW0NIM10pW0NIMl1bQ0BIXShbQ0gzXSlbQ0BIXTNbQ0BdKFtDQEBdMTI0KShPW0NAQEhdKE81KVtDSDJdW0NIMl1bQ0BIXTVbQ0gzXSlbQ0BAXTYoW0NIM10pW0NAQEhdKFtDSDJdNClbQ0BASF03W0NASF0oW0NIMl1bQ0gyXTYpW0NAXTgoW0NIM10pW0NASF0oW0NIMl1DNz1PKVtDSDJdW0NAQEhdKFtPSF0pW0NIMl1bQ0gyXTg=

>  <s_epik_cmdline>  (66) 
J2VwaWtfcHl0aG9uJywgJy1waHQnLCAnMi4wJywgJy1waCcsICc3LjAnLCAnLXRuJywgJzgnLCAnLW1hJywgJzIwMCcsICctaW1hZScsICc8aW5maWxlLm1hZT4nLCAnLW9tYWUnLCAnPG91dGZpbGUubWFlPic=

>  <r_lp_tautomer_probability>  (66) 
1

>  <r_epik_Ionization_Penalty>  (66) 
1.68282e-06

>  <r_epik_Ionization_Penalty_Charging>  (66) 
0

>  <r_epik_Ionization_Penalty_Neutral>  (66) 
1.68282e-06

>  <r_epik_State_Penalty>  (66) 
-0

>  <r_epik_Charging_Adjusted_Penalty>  (66) 
0

>  <i_epik_Tot_Q>  (66) 
0

>  <i_epik_Tot_abs_Q>  (66) 
0

>  <s_epik_Chemistry_Notes>  (66) 
This compound contains an acetal/aminal-like group ( X-CH(R)-Y where X, Y are N, S, or O) that may be acid/base labile, releasing an aldehyde.

>  <s_lp_Force_Field>  (66) 
OPLS3e

>  <r_lp_Energy>  (66) 
241.996

>  <b_lp_Chiralities_Consistent>  (66) 
1

>  <s_lp_Variant>  (66) 
22:0-1

>  <s_i_glide_gridfile>  (66) 
pfpi4k_grid

>  <i_i_glide_lignum>  (66) 
36

>  <i_i_glide_rotatable_bonds>  (66) 
3

>  <r_i_docking_score>  (66) 
-2.37008

>  <r_i_glide_ligand_efficiency>  (66) 
-0.0551181

>  <r_i_glide_ligand_efficiency_sa>  (66) 
-0.193101

>  <r_i_glide_ligand_efficiency_ln>  (66) 
-0.49779

>  <r_i_glide_gscore>  (66) 
-2.37008

>  <r_i_glide_lipo>  (66) 
-0.126354

>  <r_i_glide_hbond>  (66) 
-0.107274

>  <r_i_glide_metal>  (66) 
-0

>  <r_i_glide_rewards>  (66) 
0

>  <r_i_glide_evdw>  (66) 
-32.1894

>  <r_i_glide_ecoul>  (66) 
-3.90606

>  <r_i_glide_erotb>  (66) 
0.116369

>  <r_i_glide_esite>  (66) 
-0.0574424

>  <r_i_glide_emodel>  (66) 
-39.0693

>  <r_i_glide_energy>  (66) 
-36.0954

>  <r_i_glide_einternal>  (66) 
0.337267

>  <r_i_glide_intrahb_reward>  (66) 
-0

>  <i_i_glide_confnum>  (66) 
3

>  <i_i_glide_posenum>  (66) 
36

>  <r_i_glide_eff_state_penalty>  (66) 
0

>  <ligand_id>  (66) 
22

>  <original_smiles>  (66) 
CC1CCC(OC23C4C(C)CC5OC(C)(C)OOC2(CC2C6C(=O)CC7CC(O)CCC7(C)C6CCC23C)C5C4(C)C)O1

>  <smiles>  (66) 
[H]OC1([H])C([H])([H])C([H])([H])C2(C([H])([H])[H])C([H])(C([H])([H])C(=O)C3([H])C2([H])C([H])([H])C([H])([H])C2(C([H])([H])[H])C3([H])C([H])([H])C34OOC(C([H])([H])[H])(C([H])([H])[H])OC5([H])C([H])([H])C([H])(C([H])([H])[H])C([H])(C32OC2([H])OC([H])(C([H])([H])[H])C([H])([H])C2([H])[H])C(C([H])([H])[H])(C([H])([H])[H])C54[H])C1([H])[H]

$$$$
22:0:1
     RDKit          3D

 99106  0  0  1  0  0  0  0  0999 V2000
    3.8527   -8.0731    2.3788 C   0  0  0  0  0  0  0  0  0  0  0  0
    4.7721   -6.8736    2.6406 C   0  0  2  0  0  0  0  0  0  0  0  0
    5.9489   -7.2416    3.5442 C   0  0  0  0  0  0  0  0  0  0  0  0
    5.4878   -6.8385    4.9450 C   0  0  0  0  0  0  0  0  0  0  0  0
    4.1062   -6.2320    4.7221 C   0  0  1  0  0  0  0  0  0  0  0  0
    3.9086   -5.1822    5.6221 O   0  0  0  0  0  0  0  0  0  0  0  0
    2.6345   -4.4918    5.7278 C   0  0  2  0  0  0  0  0  0  0  0  0
    2.0516   -4.8795    7.2381 C   0  0  2  0  0  0  0  0  0  0  0  0
    2.4185   -6.3859    7.7298 C   0  0  1  0  0  0  0  0  0  0  0  0
    2.7923   -6.4485    9.2257 C   0  0  0  0  0  0  0  0  0  0  0  0
    1.3818   -7.5443    7.3084 C   0  0  0  0  0  0  0  0  0  0  0  0
    0.7261   -7.2467    5.9049 C   0  0  1  0  0  0  0  0  0  0  0  0
   -0.4082   -7.8155    5.2993 O   0  0  0  0  0  0  0  0  0  0  0  0
   -0.3470   -7.6848    3.8458 C   0  0  0  0  0  0  0  0  0  0  0  0
    0.4520   -8.8495    3.2113 C   0  0  0  0  0  0  0  0  0  0  0  0
   -1.7809   -7.8674    3.3750 C   0  0  0  0  0  0  0  0  0  0  0  0
   -0.0087   -6.3621    3.3183 O   0  0  0  0  0  0  0  0  0  0  0  0
    1.4517   -5.9372    3.6708 O   0  0  0  0  0  0  0  0  0  0  0  0
    1.4022   -4.9343    4.7368 C   0  0  2  0  0  0  0  0  0  0  0  0
    0.8735   -3.6255    4.0789 C   0  0  0  0  0  0  0  0  0  0  0  0
    1.9199   -2.4920    4.2861 C   0  0  1  0  0  0  0  0  0  0  0  0
    1.5115   -0.9485    4.2578 C   0  0  1  0  0  0  0  0  0  0  0  0
    0.1808   -0.4385    4.8481 C   0  0  0  0  0  0  0  0  0  0  0  0
   -0.7725   -1.1835    5.1098 O   0  0  0  0  0  0  0  0  0  0  0  0
   -0.0677    1.0711    4.8953 C   0  0  0  0  0  0  0  0  0  0  0  0
    1.1466    1.9068    5.3435 C   0  0  2  0  0  0  0  0  0  0  0  0
    0.8525    3.4219    5.1848 C   0  0  0  0  0  0  0  0  0  0  0  0
    0.8066    3.8741    3.7127 C   0  0  1  0  0  0  0  0  0  0  0  0
    0.7220    5.2821    3.6758 O   0  0  0  0  0  0  0  0  0  0  0  0
    2.0333    3.4039    2.9085 C   0  0  0  0  0  0  0  0  0  0  0  0
    2.3354    1.9075    3.1166 C   0  0  0  0  0  0  0  0  0  0  0  0
    2.4524    1.4901    4.6091 C   0  0  1  0  0  0  0  0  0  0  0  0
    3.6771    2.2404    5.2100 C   0  0  0  0  0  0  0  0  0  0  0  0
    2.6945   -0.0588    4.7315 C   0  0  1  0  0  0  0  0  0  0  0  0
    3.2057   -0.4875    6.1463 C   0  0  0  0  0  0  0  0  0  0  0  0
    3.0100   -1.9751    6.5427 C   0  0  0  0  0  0  0  0  0  0  0  0
    2.9628   -2.9681    5.3534 C   0  0  1  0  0  0  0  0  0  0  0  0
    4.3840   -2.8856    4.6986 C   0  0  0  0  0  0  0  0  0  0  0  0
    0.5034   -5.7011    5.7165 C   0  0  1  0  0  0  0  0  0  0  0  0
    0.4918   -4.8905    7.0525 C   0  0  0  0  0  0  0  0  0  0  0  0
   -0.4068   -5.4846    8.1844 C   0  0  0  0  0  0  0  0  0  0  0  0
   -0.1209   -3.4781    6.9974 C   0  0  0  0  0  0  0  0  0  0  0  0
    4.1027   -5.8621    3.3853 O   0  0  0  0  0  0  0  0  0  0  0  0
    4.3177   -8.8495    1.7736 H   0  0  0  0  0  0  0  0  0  0  0  0
    2.9329   -7.7589    1.8889 H   0  0  0  0  0  0  0  0  0  0  0  0
    3.6225   -8.5591    3.3224 H   0  0  0  0  0  0  0  0  0  0  0  0
    5.1127   -6.4529    1.6904 H   0  0  0  0  0  0  0  0  0  0  0  0
    6.2051   -8.2999    3.4643 H   0  0  0  0  0  0  0  0  0  0  0  0
    6.8332   -6.6723    3.2521 H   0  0  0  0  0  0  0  0  0  0  0  0
    5.4116   -7.6877    5.6366 H   0  0  0  0  0  0  0  0  0  0  0  0
    6.1710   -6.0946    5.3621 H   0  0  0  0  0  0  0  0  0  0  0  0
    3.3639   -6.9877    4.9012 H   0  0  0  0  0  0  0  0  0  0  0  0
    2.3718   -4.1567    7.9910 H   0  0  0  0  0  0  0  0  0  0  0  0
    3.3599   -6.6790    7.2698 H   0  0  0  0  0  0  0  0  0  0  0  0
    1.9734   -6.2321    9.9161 H   0  0  0  0  0  0  0  0  0  0  0  0
    3.6026   -5.7543    9.4676 H   0  0  0  0  0  0  0  0  0  0  0  0
    3.1488   -7.4480    9.4802 H   0  0  0  0  0  0  0  0  0  0  0  0
    1.9183   -8.4862    7.2426 H   0  0  0  0  0  0  0  0  0  0  0  0
    0.6528   -7.7540    8.0918 H   0  0  0  0  0  0  0  0  0  0  0  0
    1.4755   -7.7933    5.2891 H   0  0  0  0  0  0  0  0  0  0  0  0
    1.4951   -8.7916    3.4473 H   0  0  0  0  0  0  0  0  0  0  0  0
    0.3634   -8.8848    2.1207 H   0  0  0  0  0  0  0  0  0  0  0  0
    0.1204   -9.8176    3.5922 H   0  0  0  0  0  0  0  0  0  0  0  0
   -2.4156   -7.0688    3.7640 H   0  0  0  0  0  0  0  0  0  0  0  0
   -2.1858   -8.8254    3.7067 H   0  0  0  0  0  0  0  0  0  0  0  0
   -1.8444   -7.8489    2.2800 H   0  0  0  0  0  0  0  0  0  0  0  0
    0.7109   -3.8004    3.0170 H   0  0  0  0  0  0  0  0  0  0  0  0
   -0.1199   -3.4061    4.4392 H   0  0  0  0  0  0  0  0  0  0  0  0
    2.4592   -2.5761    3.3436 H   0  0  0  0  0  0  0  0  0  0  0  0
    1.3884   -0.7339    3.1972 H   0  0  0  0  0  0  0  0  0  0  0  0
   -0.3902    1.3755    3.9019 H   0  0  0  0  0  0  0  0  0  0  0  0
   -0.9049    1.2770    5.5544 H   0  0  0  0  0  0  0  0  0  0  0  0
    1.2769    1.7241    6.4089 H   0  0  0  0  0  0  0  0  0  0  0  0
   -0.0913    3.6672    5.6708 H   0  0  0  0  0  0  0  0  0  0  0  0
    1.6063    3.9987    5.7224 H   0  0  0  0  0  0  0  0  0  0  0  0
   -0.0970    3.4827    3.2447 H   0  0  0  0  0  0  0  0  0  0  0  0
    0.6154    5.5359    2.7634 H   0  0  0  0  0  0  0  0  0  0  0  0
    1.8428    3.5697    1.8494 H   0  0  0  0  0  0  0  0  0  0  0  0
    2.9090    4.0110    3.1387 H   0  0  0  0  0  0  0  0  0  0  0  0
    1.5311    1.3566    2.6343 H   0  0  0  0  0  0  0  0  0  0  0  0
    3.2426    1.6469    2.5670 H   0  0  0  0  0  0  0  0  0  0  0  0
    4.6124    1.8881    4.7653 H   0  0  0  0  0  0  0  0  0  0  0  0
    3.7548    2.1169    6.2921 H   0  0  0  0  0  0  0  0  0  0  0  0
    3.6473    3.3193    5.0483 H   0  0  0  0  0  0  0  0  0  0  0  0
    3.5137   -0.2359    4.0304 H   0  0  0  0  0  0  0  0  0  0  0  0
    4.2783   -0.2990    6.1728 H   0  0  0  0  0  0  0  0  0  0  0  0
    2.7921    0.1493    6.9391 H   0  0  0  0  0  0  0  0  0  0  0  0
    3.7949   -2.2728    7.2428 H   0  0  0  0  0  0  0  0  0  0  0  0
    2.1070   -2.0030    7.1317 H   0  0  0  0  0  0  0  0  0  0  0  0
    4.6806   -1.8864    4.3974 H   0  0  0  0  0  0  0  0  0  0  0  0
    4.4616   -3.4958    3.7968 H   0  0  0  0  0  0  0  0  0  0  0  0
    5.1674   -3.2111    5.3884 H   0  0  0  0  0  0  0  0  0  0  0  0
    1.4546   -6.1266    5.6484 H   0  0  0  0  0  0  0  0  0  0  0  0
   -1.1856   -4.8193    8.5585 H   0  0  0  0  0  0  0  0  0  0  0  0
    0.1388   -5.7763    9.0720 H   0  0  0  0  0  0  0  0  0  0  0  0
   -0.9743   -6.3392    7.8337 H   0  0  0  0  0  0  0  0  0  0  0  0
   -1.1534   -3.5023    6.6345 H   0  0  0  0  0  0  0  0  0  0  0  0
    0.4235   -2.8039    6.3762 H   0  0  0  0  0  0  0  0  0  0  0  0
   -0.1206   -3.0033    7.9816 H   0  0  0  0  0  0  0  0  0  0  0  0
  1  2  1  0
  1 44  1  0
  1 45  1  0
  1 46  1  0
  2 43  1  0
  2  3  1  0
  2 47  1  6
  3  4  1  0
  3 48  1  0
  3 49  1  0
  4  5  1  0
  4 50  1  0
  4 51  1  0
  5  6  1  0
  5 43  1  0
  5 52  1  6
  7  6  1  6
  7 19  1  0
  7 37  1  0
  7  8  1  0
  8 40  1  0
  8  9  1  0
  8 53  1  1
  9 10  1  0
  9 11  1  0
  9 54  1  6
 10 55  1  0
 10 56  1  0
 10 57  1  0
 11 12  1  0
 11 58  1  0
 11 59  1  0
 12 39  1  0
 12 13  1  0
 12 60  1  6
 13 14  1  0
 14 15  1  0
 14 16  1  0
 14 17  1  0
 15 61  1  0
 15 62  1  0
 15 63  1  0
 16 64  1  0
 16 65  1  0
 16 66  1  0
 17 18  1  0
 19 18  1  6
 19 20  1  0
 19 39  1  0
 20 21  1  0
 20 67  1  0
 20 68  1  0
 21 37  1  0
 21 22  1  0
 21 69  1  6
 22 34  1  0
 22 23  1  0
 22 70  1  6
 23 24  2  0
 23 25  1  0
 25 26  1  0
 25 71  1  0
 25 72  1  0
 26 32  1  0
 26 27  1  0
 26 73  1  1
 27 28  1  0
 27 74  1  0
 27 75  1  0
 28 29  1  0
 28 30  1  0
 28 76  1  6
 29 77  1  0
 30 31  1  0
 30 78  1  0
 30 79  1  0
 31 32  1  0
 31 80  1  0
 31 81  1  0
 32 33  1  1
 32 34  1  0
 33 82  1  0
 33 83  1  0
 33 84  1  0
 34 35  1  0
 34 85  1  6
 35 36  1  0
 35 86  1  0
 35 87  1  0
 36 37  1  0
 36 88  1  0
 36 89  1  0
 37 38  1  6
 38 90  1  0
 38 91  1  0
 38 92  1  0
 39 40  1  0
 39 93  1  6
 40 41  1  0
 40 42  1  0
 41 94  1  0
 41 95  1  0
 41 96  1  0
 42 97  1  0
 42 98  1  0
 42 99  1  0
M  END
>  <i_m_ct_stereo_status>  (67) 
1

>  <s_m_source_file>  (67) 
/var/tmp/pbs.5076255.sched01/tmpgn4o3w3f/0whq8s7pj.sdf

>  <i_m_source_file_index>  (67) 
36

>  <i_lp_mmshare_version>  (67) 
48012

>  <i_f3d_flags>  (67) 
0

>  <s_epik_input>  (67) 
TzFPQyhbQ0gzXSkoW0NIM10pT1tDQEBIXShbQ0BASF0yQzMoW0NIM10pW0NIM10pW0NIMl1bQ0BIXShbQ0gzXSlbQ0BIXTNbQ0BdKFtDQEBdMTI0KShPW0NAQEhdKE81KVtDSDJdW0NIMl1bQ0BIXTVbQ0gzXSlbQ0BAXTYoW0NIM10pW0NAQEhdKFtDSDJdNClbQ0BASF03W0NASF0oW0NIMl1bQ0gyXTYpW0NAXTgoW0NIM10pW0NASF0oW0NIMl1DNz1PKVtDSDJdW0NAQEhdKFtPSF0pW0NIMl1bQ0gyXTg=

>  <s_epik_cmdline>  (67) 
J2VwaWtfcHl0aG9uJywgJy1waHQnLCAnMi4wJywgJy1waCcsICc3LjAnLCAnLXRuJywgJzgnLCAnLW1hJywgJzIwMCcsICctaW1hZScsICc8aW5maWxlLm1hZT4nLCAnLW9tYWUnLCAnPG91dGZpbGUubWFlPic=

>  <r_lp_tautomer_probability>  (67) 
1

>  <r_epik_Ionization_Penalty>  (67) 
1.68282e-06

>  <r_epik_Ionization_Penalty_Charging>  (67) 
0

>  <r_epik_Ionization_Penalty_Neutral>  (67) 
1.68282e-06

>  <r_epik_State_Penalty>  (67) 
-0

>  <r_epik_Charging_Adjusted_Penalty>  (67) 
0

>  <i_epik_Tot_Q>  (67) 
0

>  <i_epik_Tot_abs_Q>  (67) 
0

>  <s_epik_Chemistry_Notes>  (67) 
This compound contains an acetal/aminal-like group ( X-CH(R)-Y where X, Y are N, S, or O) that may be acid/base labile, releasing an aldehyde.

>  <s_lp_Force_Field>  (67) 
OPLS3e

>  <r_lp_Energy>  (67) 
241.996

>  <b_lp_Chiralities_Consistent>  (67) 
1

>  <s_lp_Variant>  (67) 
22:0-1

>  <s_i_glide_gridfile>  (67) 
pfpi4k_grid

>  <i_i_glide_lignum>  (67) 
36

>  <i_i_glide_rotatable_bonds>  (67) 
3

>  <r_i_docking_score>  (67) 
-2.35662

>  <r_i_glide_ligand_efficiency>  (67) 
-0.0548051

>  <r_i_glide_ligand_efficiency_sa>  (67) 
-0.192004

>  <r_i_glide_ligand_efficiency_ln>  (67) 
-0.494964

>  <r_i_glide_gscore>  (67) 
-2.35662

>  <r_i_glide_lipo>  (67) 
-0.0695722

>  <r_i_glide_hbond>  (67) 
-0.126977

>  <r_i_glide_metal>  (67) 
-0

>  <r_i_glide_rewards>  (67) 
0

>  <r_i_glide_evdw>  (67) 
-32.1124

>  <r_i_glide_ecoul>  (67) 
-4.08785

>  <r_i_glide_erotb>  (67) 
0.116369

>  <r_i_glide_esite>  (67) 
-0.0576438

>  <r_i_glide_emodel>  (67) 
-41.1654

>  <r_i_glide_energy>  (67) 
-36.2002

>  <r_i_glide_einternal>  (67) 
0.357732

>  <r_i_glide_intrahb_reward>  (67) 
-0

>  <i_i_glide_confnum>  (67) 
5

>  <i_i_glide_posenum>  (67) 
26

>  <r_i_glide_eff_state_penalty>  (67) 
0

>  <ligand_id>  (67) 
22

>  <original_smiles>  (67) 
CC1CCC(OC23C4C(C)CC5OC(C)(C)OOC2(CC2C6C(=O)CC7CC(O)CCC7(C)C6CCC23C)C5C4(C)C)O1

>  <smiles>  (67) 
[H]OC1([H])C([H])([H])C([H])([H])C2(C([H])([H])[H])C([H])(C([H])([H])C(=O)C3([H])C2([H])C([H])([H])C([H])([H])C2(C([H])([H])[H])C3([H])C([H])([H])C34OOC(C([H])([H])[H])(C([H])([H])[H])OC5([H])C([H])([H])C([H])(C([H])([H])[H])C([H])(C32OC2([H])OC([H])(C([H])([H])[H])C([H])([H])C2([H])[H])C(C([H])([H])[H])(C([H])([H])[H])C54[H])C1([H])[H]

$$$$
22:0:2
     RDKit          3D

 99106  0  0  1  0  0  0  0  0999 V2000
    5.7641   -6.0038    1.0381 C   0  0  0  0  0  0  0  0  0  0  0  0
    6.0668   -5.3966    2.4133 C   0  0  2  0  0  0  0  0  0  0  0  0
    6.7632   -6.3396    3.3842 C   0  0  0  0  0  0  0  0  0  0  0  0
    6.2406   -5.8616    4.7220 C   0  0  0  0  0  0  0  0  0  0  0  0
    4.8058   -5.4693    4.3552 C   0  0  1  0  0  0  0  0  0  0  0  0
    4.3619   -4.5185    5.2808 O   0  0  0  0  0  0  0  0  0  0  0  0
    3.0184   -3.9658    5.2563 C   0  0  2  0  0  0  0  0  0  0  0  0
    2.2880   -4.5963    6.6127 C   0  0  2  0  0  0  0  0  0  0  0  0
    2.7627   -6.1109    6.9938 C   0  0  1  0  0  0  0  0  0  0  0  0
    2.9311   -6.3114    8.5203 C   0  0  0  0  0  0  0  0  0  0  0  0
    1.9418   -7.2976    6.3013 C   0  0  0  0  0  0  0  0  0  0  0  0
    1.4494   -6.9041    4.8516 C   0  0  1  0  0  0  0  0  0  0  0  0
    0.4908   -7.5127    4.0207 O   0  0  0  0  0  0  0  0  0  0  0  0
    0.7533   -7.1925    2.6269 C   0  0  0  0  0  0  0  0  0  0  0  0
    1.8225   -8.1327    1.9989 C   0  0  0  0  0  0  0  0  0  0  0  0
   -0.5677   -7.4668    1.9156 C   0  0  0  0  0  0  0  0  0  0  0  0
    0.9694   -5.7889    2.3131 O   0  0  0  0  0  0  0  0  0  0  0  0
    2.2916   -5.2580    2.8981 O   0  0  0  0  0  0  0  0  0  0  0  0
    1.9921   -4.4028    4.0479 C   0  0  2  0  0  0  0  0  0  0  0  0
    1.4188   -3.0855    3.4559 C   0  0  0  0  0  0  0  0  0  0  0  0
    2.2889   -1.8904    3.9438 C   0  0  1  0  0  0  0  0  0  0  0  0
    1.7178   -0.4005    4.0206 C   0  0  1  0  0  0  0  0  0  0  0  0
    0.2669   -0.1043    4.4636 C   0  0  0  0  0  0  0  0  0  0  0  0
   -0.6134   -0.9655    4.5019 O   0  0  0  0  0  0  0  0  0  0  0  0
   -0.1661    1.3588    4.6288 C   0  0  0  0  0  0  0  0  0  0  0  0
    0.8761    2.2511    5.3367 C   0  0  2  0  0  0  0  0  0  0  0  0
    0.4194    3.7368    5.3047 C   0  0  0  0  0  0  0  0  0  0  0  0
    0.5259    4.3682    3.9001 C   0  0  1  0  0  0  0  0  0  0  0  0
    0.2834    5.7609    4.0189 O   0  0  0  0  0  0  0  0  0  0  0  0
    1.8961    4.1282    3.2497 C   0  0  0  0  0  0  0  0  0  0  0  0
    2.3443    2.6521    3.3310 C   0  0  0  0  0  0  0  0  0  0  0  0
    2.3018    2.0640    4.7733 C   0  0  1  0  0  0  0  0  0  0  0  0
    3.3459    2.8534    5.6242 C   0  0  0  0  0  0  0  0  0  0  0  0
    2.7175    0.5411    4.7612 C   0  0  1  0  0  0  0  0  0  0  0  0
    3.0646   -0.0082    6.1848 C   0  0  0  0  0  0  0  0  0  0  0  0
    2.9977   -1.5462    6.3805 C   0  0  0  0  0  0  0  0  0  0  0  0
    3.2229   -2.3875    5.1019 C   0  0  1  0  0  0  0  0  0  0  0  0
    4.7023   -2.0936    4.6759 C   0  0  0  0  0  0  0  0  0  0  0  0
    1.0715   -5.3678    4.7963 C   0  0  1  0  0  0  0  0  0  0  0  0
    0.7845   -4.7437    6.1917 C   0  0  0  0  0  0  0  0  0  0  0  0
   -0.1900   -5.5745    7.0962 C   0  0  0  0  0  0  0  0  0  0  0  0
    0.0270   -3.4018    6.2029 C   0  0  0  0  0  0  0  0  0  0  0  0
    4.8664   -5.0174    3.0568 O   0  0  0  0  0  0  0  0  0  0  0  0
    6.6843   -6.2424    0.5144 H   0  0  0  0  0  0  0  0  0  0  0  0
    5.1782   -5.3241    0.4219 H   0  0  0  0  0  0  0  0  0  0  0  0
    5.1878   -6.9257    1.1374 H   0  0  0  0  0  0  0  0  0  0  0  0
    6.6296   -4.4672    2.3375 H   0  0  0  0  0  0  0  0  0  0  0  0
    6.4567   -7.3742    3.2098 H   0  0  0  0  0  0  0  0  0  0  0  0
    7.8476   -6.2909    3.2994 H   0  0  0  0  0  0  0  0  0  0  0  0
    6.2461   -6.6295    5.4867 H   0  0  0  0  0  0  0  0  0  0  0  0
    6.7783   -4.9839    5.0676 H   0  0  0  0  0  0  0  0  0  0  0  0
    4.2133   -6.3806    4.3718 H   0  0  0  0  0  0  0  0  0  0  0  0
    2.4170   -3.9423    7.4697 H   0  0  0  0  0  0  0  0  0  0  0  0
    3.7926   -6.2384    6.6773 H   0  0  0  0  0  0  0  0  0  0  0  0
    2.0104   -6.2706    9.0929 H   0  0  0  0  0  0  0  0  0  0  0  0
    3.6161   -5.5795    8.9421 H   0  0  0  0  0  0  0  0  0  0  0  0
    3.3683   -7.2934    8.7068 H   0  0  0  0  0  0  0  0  0  0  0  0
    2.5940   -8.1640    6.2079 H   0  0  0  0  0  0  0  0  0  0  0  0
    1.1485   -7.6901    6.9344 H   0  0  0  0  0  0  0  0  0  0  0  0
    2.3337   -7.2908    4.3023 H   0  0  0  0  0  0  0  0  0  0  0  0
    2.8488   -7.9532    2.3383 H   0  0  0  0  0  0  0  0  0  0  0  0
    1.8410   -8.0721    0.8985 H   0  0  0  0  0  0  0  0  0  0  0  0
    1.5940   -9.1822    2.2324 H   0  0  0  0  0  0  0  0  0  0  0  0
   -1.3370   -6.8024    2.2885 H   0  0  0  0  0  0  0  0  0  0  0  0
   -0.8986   -8.4910    2.0749 H   0  0  0  0  0  0  0  0  0  0  0  0
   -0.4816   -7.3134    0.8421 H   0  0  0  0  0  0  0  0  0  0  0  0
    1.4247   -3.1345    2.3680 H   0  0  0  0  0  0  0  0  0  0  0  0
    0.3654   -3.0039    3.6775 H   0  0  0  0  0  0  0  0  0  0  0  0
    2.9662   -1.7945    3.0936 H   0  0  0  0  0  0  0  0  0  0  0  0
    1.7137   -0.0649    2.9822 H   0  0  0  0  0  0  0  0  0  0  0  0
   -0.3822    1.7472    3.6343 H   0  0  0  0  0  0  0  0  0  0  0  0
   -1.1063    1.3922    5.1690 H   0  0  0  0  0  0  0  0  0  0  0  0
    0.8713    1.9504    6.3875 H   0  0  0  0  0  0  0  0  0  0  0  0
   -0.6014    3.8159    5.6680 H   0  0  0  0  0  0  0  0  0  0  0  0
    1.0180    4.3145    6.0075 H   0  0  0  0  0  0  0  0  0  0  0  0
   -0.2475    3.9467    3.2590 H   0  0  0  0  0  0  0  0  0  0  0  0
    0.4124    6.1754    3.1756 H   0  0  0  0  0  0  0  0  0  0  0  0
    1.8375    4.4121    2.1973 H   0  0  0  0  0  0  0  0  0  0  0  0
    2.6541    4.7823    3.6753 H   0  0  0  0  0  0  0  0  0  0  0  0
    1.6805    2.0832    2.6797 H   0  0  0  0  0  0  0  0  0  0  0  0
    3.3342    2.5496    2.9075 H   0  0  0  0  0  0  0  0  0  0  0  0
    4.3626    2.6585    5.2917 H   0  0  0  0  0  0  0  0  0  0  0  0
    3.2859    2.6036    6.6852 H   0  0  0  0  0  0  0  0  0  0  0  0
    3.2040    3.9315    5.5818 H   0  0  0  0  0  0  0  0  0  0  0  0
    3.6332    0.5340    4.1751 H   0  0  0  0  0  0  0  0  0  0  0  0
    4.0969    0.2844    6.3881 H   0  0  0  0  0  0  0  0  0  0  0  0
    2.4818    0.4828    6.9681 H   0  0  0  0  0  0  0  0  0  0  0  0
    3.7017   -1.8472    7.1547 H   0  0  0  0  0  0  0  0  0  0  0  0
    2.0285   -1.7296    6.8195 H   0  0  0  0  0  0  0  0  0  0  0  0
    4.9182   -1.0443    4.5262 H   0  0  0  0  0  0  0  0  0  0  0  0
    4.9742   -2.5921    3.7467 H   0  0  0  0  0  0  0  0  0  0  0  0
    5.4157   -2.4095    5.4388 H   0  0  0  0  0  0  0  0  0  0  0  0
    2.0622   -5.6935    4.8219 H   0  0  0  0  0  0  0  0  0  0  0  0
   -1.0815   -5.0382    7.4203 H   0  0  0  0  0  0  0  0  0  0  0  0
    0.2628   -5.9098    8.0219 H   0  0  0  0  0  0  0  0  0  0  0  0
   -0.5852   -6.4385    6.5664 H   0  0  0  0  0  0  0  0  0  0  0  0
   -0.9332   -3.4722    5.6927 H   0  0  0  0  0  0  0  0  0  0  0  0
    0.5750   -2.6072    5.7426 H   0  0  0  0  0  0  0  0  0  0  0  0
   -0.1615   -3.0493    7.2191 H   0  0  0  0  0  0  0  0  0  0  0  0
  1  2  1  0
  1 44  1  0
  1 45  1  0
  1 46  1  0
  2 43  1  0
  2  3  1  0
  2 47  1  6
  3  4  1  0
  3 48  1  0
  3 49  1  0
  4  5  1  0
  4 50  1  0
  4 51  1  0
  5  6  1  0
  5 43  1  0
  5 52  1  6
  7  6  1  6
  7 19  1  0
  7 37  1  0
  7  8  1  0
  8 40  1  0
  8  9  1  0
  8 53  1  1
  9 10  1  0
  9 11  1  0
  9 54  1  6
 10 55  1  0
 10 56  1  0
 10 57  1  0
 11 12  1  0
 11 58  1  0
 11 59  1  0
 12 39  1  0
 12 13  1  0
 12 60  1  6
 13 14  1  0
 14 15  1  0
 14 16  1  0
 14 17  1  0
 15 61  1  0
 15 62  1  0
 15 63  1  0
 16 64  1  0
 16 65  1  0
 16 66  1  0
 17 18  1  0
 19 18  1  6
 19 20  1  0
 19 39  1  0
 20 21  1  0
 20 67  1  0
 20 68  1  0
 21 37  1  0
 21 22  1  0
 21 69  1  6
 22 34  1  0
 22 23  1  0
 22 70  1  6
 23 24  2  0
 23 25  1  0
 25 26  1  0
 25 71  1  0
 25 72  1  0
 26 32  1  0
 26 27  1  0
 26 73  1  1
 27 28  1  0
 27 74  1  0
 27 75  1  0
 28 29  1  0
 28 30  1  0
 28 76  1  6
 29 77  1  0
 30 31  1  0
 30 78  1  0
 30 79  1  0
 31 32  1  0
 31 80  1  0
 31 81  1  0
 32 33  1  1
 32 34  1  0
 33 82  1  0
 33 83  1  0
 33 84  1  0
 34 35  1  0
 34 85  1  6
 35 36  1  0
 35 86  1  0
 35 87  1  0
 36 37  1  0
 36 88  1  0
 36 89  1  0
 37 38  1  6
 38 90  1  0
 38 91  1  0
 38 92  1  0
 39 40  1  0
 39 93  1  6
 40 41  1  0
 40 42  1  0
 41 94  1  0
 41 95  1  0
 41 96  1  0
 42 97  1  0
 42 98  1  0
 42 99  1  0
M  END
>  <i_m_ct_stereo_status>  (68) 
1

>  <s_m_source_file>  (68) 
/var/tmp/pbs.5076255.sched01/tmpgn4o3w3f/0whq8s7pj.sdf

>  <i_m_source_file_index>  (68) 
36

>  <i_lp_mmshare_version>  (68) 
48012

>  <i_f3d_flags>  (68) 
0

>  <s_epik_input>  (68) 
TzFPQyhbQ0gzXSkoW0NIM10pT1tDQEBIXShbQ0BASF0yQzMoW0NIM10pW0NIM10pW0NIMl1bQ0BIXShbQ0gzXSlbQ0BIXTNbQ0BdKFtDQEBdMTI0KShPW0NAQEhdKE81KVtDSDJdW0NIMl1bQ0BIXTVbQ0gzXSlbQ0BAXTYoW0NIM10pW0NAQEhdKFtDSDJdNClbQ0BASF03W0NASF0oW0NIMl1bQ0gyXTYpW0NAXTgoW0NIM10pW0NASF0oW0NIMl1DNz1PKVtDSDJdW0NAQEhdKFtPSF0pW0NIMl1bQ0gyXTg=

>  <s_epik_cmdline>  (68) 
J2VwaWtfcHl0aG9uJywgJy1waHQnLCAnMi4wJywgJy1waCcsICc3LjAnLCAnLXRuJywgJzgnLCAnLW1hJywgJzIwMCcsICctaW1hZScsICc8aW5maWxlLm1hZT4nLCAnLW9tYWUnLCAnPG91dGZpbGUubWFlPic=

>  <r_lp_tautomer_probability>  (68) 
1

>  <r_epik_Ionization_Penalty>  (68) 
1.68282e-06

>  <r_epik_Ionization_Penalty_Charging>  (68) 
0

>  <r_epik_Ionization_Penalty_Neutral>  (68) 
1.68282e-06

>  <r_epik_State_Penalty>  (68) 
-0

>  <r_epik_Charging_Adjusted_Penalty>  (68) 
0

>  <i_epik_Tot_Q>  (68) 
0

>  <i_epik_Tot_abs_Q>  (68) 
0

>  <s_epik_Chemistry_Notes>  (68) 
This compound contains an acetal/aminal-like group ( X-CH(R)-Y where X, Y are N, S, or O) that may be acid/base labile, releasing an aldehyde.

>  <s_lp_Force_Field>  (68) 
OPLS3e

>  <r_lp_Energy>  (68) 
241.996

>  <b_lp_Chiralities_Consistent>  (68) 
1

>  <s_lp_Variant>  (68) 
22:0-1

>  <s_i_glide_gridfile>  (68) 
pfpi4k_grid

>  <i_i_glide_lignum>  (68) 
36

>  <i_i_glide_rotatable_bonds>  (68) 
3

>  <r_i_docking_score>  (68) 
-2.21126

>  <r_i_glide_ligand_efficiency>  (68) 
-0.0514247

>  <r_i_glide_ligand_efficiency_sa>  (68) 
-0.180161

>  <r_i_glide_ligand_efficiency_ln>  (68) 
-0.464434

>  <r_i_glide_gscore>  (68) 
-2.21126

>  <r_i_glide_lipo>  (68) 
-0.208183

>  <r_i_glide_hbond>  (68) 
-0.0534261

>  <r_i_glide_metal>  (68) 
-0

>  <r_i_glide_rewards>  (68) 
0

>  <r_i_glide_evdw>  (68) 
-32.1195

>  <r_i_glide_ecoul>  (68) 
-2.72111

>  <r_i_glide_erotb>  (68) 
0.116369

>  <r_i_glide_esite>  (68) 
-0.0518822

>  <r_i_glide_emodel>  (68) 
-39.5554

>  <r_i_glide_energy>  (68) 
-34.8406

>  <r_i_glide_einternal>  (68) 
0.470485

>  <r_i_glide_intrahb_reward>  (68) 
-0

>  <i_i_glide_confnum>  (68) 
6

>  <i_i_glide_posenum>  (68) 
40

>  <r_i_glide_eff_state_penalty>  (68) 
0

>  <ligand_id>  (68) 
22

>  <original_smiles>  (68) 
CC1CCC(OC23C4C(C)CC5OC(C)(C)OOC2(CC2C6C(=O)CC7CC(O)CCC7(C)C6CCC23C)C5C4(C)C)O1

>  <smiles>  (68) 
[H]OC1([H])C([H])([H])C([H])([H])C2(C([H])([H])[H])C([H])(C([H])([H])C(=O)C3([H])C2([H])C([H])([H])C([H])([H])C2(C([H])([H])[H])C3([H])C([H])([H])C34OOC(C([H])([H])[H])(C([H])([H])[H])OC5([H])C([H])([H])C([H])(C([H])([H])[H])C([H])(C32OC2([H])OC([H])(C([H])([H])[H])C([H])([H])C2([H])[H])C(C([H])([H])[H])(C([H])([H])[H])C54[H])C1([H])[H]

$$$$
23:0:0
     RDKit          3D

 79 83  0  0  1  0  0  0  0  0999 V2000
    5.7362   -4.7101    2.6574 C   0  0  0  0  0  0  0  0  0  0  0  0
    4.2658   -4.3387    2.8452 C   0  0  0  0  0  0  0  0  0  0  0  0
    3.5906   -4.1729    1.4700 C   0  0  0  0  0  0  0  0  0  0  0  0
    4.0690   -3.1105    3.8000 C   0  0  2  0  0  0  0  0  0  0  0  0
    4.7177   -3.2988    5.1948 C   0  0  0  0  0  0  0  0  0  0  0  0
    3.7384   -2.7631    6.2503 C   0  0  1  0  0  0  0  0  0  0  0  0
    4.4069   -2.0099    7.2428 O   0  0  0  0  0  0  0  0  0  0  0  0
    2.5940   -2.0062    5.4827 C   0  0  1  0  0  0  0  0  0  0  0  0
    1.2658   -2.2462    6.2301 C   0  0  0  0  0  0  0  0  0  0  0  0
    2.9572   -0.4601    5.3544 C   0  0  2  0  0  0  0  0  0  0  0  0
    3.1865    0.6153    6.4877 C   0  0  1  0  0  0  0  0  0  0  0  0
    4.2668    1.5419    6.3626 O   0  0  0  0  0  0  0  0  0  0  0  0
    1.7592    1.1310    6.2345 C   0  0  1  0  0  0  0  0  0  0  0  0
    0.7982    0.4235    7.2485 C   0  0  0  0  0  0  0  0  0  0  0  0
    1.1461    2.5351    5.9130 C   0  0  2  0  0  0  0  0  0  0  0  0
    0.4418    3.2588    7.1027 C   0  0  0  0  0  0  0  0  0  0  0  0
   -1.0786    2.9385    7.3786 C   0  0  1  0  0  0  0  0  0  0  0  0
   -1.7503    4.1564    7.5857 O   0  0  0  0  0  0  0  0  0  0  0  0
   -1.8014    2.1329    6.2637 C   0  0  0  0  0  0  0  0  0  0  0  0
   -1.2714    2.6018    4.9224 C   0  0  2  0  0  0  0  0  0  0  0  0
   -2.0098    2.2990    3.6201 C   0  0  1  0  0  0  0  0  0  0  0  0
   -3.3872    2.9514    3.4896 C   0  0  0  0  0  0  0  0  0  0  0  0
   -1.0092    2.8604    2.6037 C   0  0  0  0  0  0  0  0  0  0  0  0
    0.3247    3.1126    3.3435 C   0  0  1  0  0  0  0  0  0  0  0  0
    0.5077    4.4852    3.6275 O   0  0  0  0  0  0  0  0  0  0  0  0
    0.2133    2.2666    4.6447 C   0  0  1  0  0  0  0  0  0  0  0  0
    0.6009    0.7922    4.2374 C   0  0  0  0  0  0  0  0  0  0  0  0
    2.0406    0.6648    4.7745 C   0  0  2  0  0  0  0  0  0  0  0  0
    2.9356    1.5044    3.7541 C   0  0  0  0  0  0  0  0  0  0  0  0
    2.5703   -2.7277    4.0691 C   0  0  1  0  0  0  0  0  0  0  0  0
    1.9924   -1.8189    2.9333 C   0  0  0  0  0  0  0  0  0  0  0  0
    1.7921   -4.0420    4.1839 C   0  0  0  0  0  0  0  0  0  0  0  0
    0.5395   -4.0524    3.9205 O   0  0  0  0  0  0  0  0  0  0  0  0
    6.3109   -3.8839    2.2237 H   0  0  0  0  0  0  0  0  0  0  0  0
    5.7904   -5.5793    1.9899 H   0  0  0  0  0  0  0  0  0  0  0  0
    6.1927   -5.0136    3.6068 H   0  0  0  0  0  0  0  0  0  0  0  0
    3.8548   -5.2369    3.3066 H   0  0  0  0  0  0  0  0  0  0  0  0
    3.9822   -3.2994    0.9490 H   0  0  0  0  0  0  0  0  0  0  0  0
    2.5177   -4.0387    1.5683 H   0  0  0  0  0  0  0  0  0  0  0  0
    3.7386   -5.0544    0.8451 H   0  0  0  0  0  0  0  0  0  0  0  0
    4.5565   -2.2408    3.3537 H   0  0  0  0  0  0  0  0  0  0  0  0
    4.9127   -4.3481    5.4192 H   0  0  0  0  0  0  0  0  0  0  0  0
    5.6846   -2.7817    5.2469 H   0  0  0  0  0  0  0  0  0  0  0  0
    3.2991   -3.6230    6.7617 H   0  0  0  0  0  0  0  0  0  0  0  0
    5.0316   -2.5657    7.7226 H   0  0  0  0  0  0  0  0  0  0  0  0
    0.5421   -1.6438    5.6768 H   0  0  0  0  0  0  0  0  0  0  0  0
    1.3713   -1.9614    7.2652 H   0  0  0  0  0  0  0  0  0  0  0  0
    0.8555   -3.2545    6.2708 H   0  0  0  0  0  0  0  0  0  0  0  0
    3.9132   -0.4550    4.8264 H   0  0  0  0  0  0  0  0  0  0  0  0
    3.3152    0.1643    7.4734 H   0  0  0  0  0  0  0  0  0  0  0  0
    4.2066    1.9626    5.5192 H   0  0  0  0  0  0  0  0  0  0  0  0
    0.2980    1.0113    7.9672 H   0  0  0  0  0  0  0  0  0  0  0  0
    1.3085   -0.1731    7.9836 H   0  0  0  0  0  0  0  0  0  0  0  0
    0.0362   -0.1833    6.7885 H   0  0  0  0  0  0  0  0  0  0  0  0
    1.9727    3.1989    5.6262 H   0  0  0  0  0  0  0  0  0  0  0  0
    1.0292    3.0521    8.0053 H   0  0  0  0  0  0  0  0  0  0  0  0
    0.5770    4.3250    6.9308 H   0  0  0  0  0  0  0  0  0  0  0  0
   -1.1952    2.4042    8.3230 H   0  0  0  0  0  0  0  0  0  0  0  0
   -1.3789    4.5381    8.3750 H   0  0  0  0  0  0  0  0  0  0  0  0
   -1.6578    1.0583    6.3526 H   0  0  0  0  0  0  0  0  0  0  0  0
   -2.8716    2.2919    6.3390 H   0  0  0  0  0  0  0  0  0  0  0  0
   -1.3383    3.6873    5.0276 H   0  0  0  0  0  0  0  0  0  0  0  0
   -2.0947    1.2183    3.4946 H   0  0  0  0  0  0  0  0  0  0  0  0
   -3.3076    4.0311    3.5956 H   0  0  0  0  0  0  0  0  0  0  0  0
   -4.0684    2.5871    4.2473 H   0  0  0  0  0  0  0  0  0  0  0  0
   -3.8414    2.7436    2.5192 H   0  0  0  0  0  0  0  0  0  0  0  0
   -0.8833    2.1421    1.7943 H   0  0  0  0  0  0  0  0  0  0  0  0
   -1.3824    3.7759    2.1387 H   0  0  0  0  0  0  0  0  0  0  0  0
    1.1095    2.8342    2.6497 H   0  0  0  0  0  0  0  0  0  0  0  0
    0.5419    4.9251    2.7778 H   0  0  0  0  0  0  0  0  0  0  0  0
   -0.0957    0.1044    4.7010 H   0  0  0  0  0  0  0  0  0  0  0  0
    0.5232    0.6084    3.1691 H   0  0  0  0  0  0  0  0  0  0  0  0
    2.8618    2.5864    3.8321 H   0  0  0  0  0  0  0  0  0  0  0  0
    2.7155    1.2511    2.7168 H   0  0  0  0  0  0  0  0  0  0  0  0
    4.0098    1.3257    3.8307 H   0  0  0  0  0  0  0  0  0  0  0  0
    2.5097   -0.8770    2.8968 H   0  0  0  0  0  0  0  0  0  0  0  0
    0.9316   -1.6219    3.1168 H   0  0  0  0  0  0  0  0  0  0  0  0
    2.0872   -2.1653    1.9078 H   0  0  0  0  0  0  0  0  0  0  0  0
    2.2584   -4.9307    4.5097 H   0  0  0  0  0  0  0  0  0  0  0  0
  1  2  1  0
  1 34  1  0
  1 35  1  0
  1 36  1  0
  2  3  1  0
  2  4  1  0
  2 37  1  0
  3 38  1  0
  3 39  1  0
  3 40  1  0
  4 30  1  0
  4  5  1  0
  4 41  1  6
  5  6  1  0
  5 42  1  0
  5 43  1  0
  6  7  1  0
  6  8  1  0
  6 44  1  1
  7 45  1  0
  8  9  1  1
  8 10  1  0
  8 30  1  0
  9 46  1  0
  9 47  1  0
  9 48  1  0
 10 28  1  0
 10 11  1  0
 10 49  1  6
 11 12  1  0
 11 13  1  0
 11 50  1  1
 12 51  1  0
 13 28  1  0
 13 14  1  1
 13 15  1  0
 14 52  1  0
 14 53  1  0
 14 54  1  0
 15 26  1  0
 15 16  1  0
 15 55  1  6
 16 17  1  0
 16 56  1  0
 16 57  1  0
 17 18  1  0
 17 19  1  0
 17 58  1  1
 18 59  1  0
 19 20  1  0
 19 60  1  0
 19 61  1  0
 20 26  1  0
 20 21  1  0
 20 62  1  1
 21 22  1  0
 21 23  1  0
 21 63  1  6
 22 64  1  0
 22 65  1  0
 22 66  1  0
 23 24  1  0
 23 67  1  0
 23 68  1  0
 24 25  1  0
 24 26  1  0
 24 69  1  6
 25 70  1  0
 26 27  1  6
 27 28  1  0
 27 71  1  0
 27 72  1  0
 28 29  1  6
 29 73  1  0
 29 74  1  0
 29 75  1  0
 30 31  1  6
 30 32  1  0
 31 76  1  0
 31 77  1  0
 31 78  1  0
 32 33  2  0
 32 79  1  0
M  END
>  <i_m_ct_stereo_status>  (69) 
1

>  <s_m_source_file>  (69) 
/var/tmp/pbs.5076255.sched01/tmpgn4o3w3f/0whq8s7pj.sdf

>  <i_m_source_file_index>  (69) 
37

>  <i_lp_mmshare_version>  (69) 
48012

>  <i_f3d_flags>  (69) 
0

>  <s_epik_input>  (69) 
Tz1bQ0hdW0NAXTEoW0NIM10pW0NASF0oW0NIXShbQ0gzXSlbQ0gzXSlbQ0gyXVtDQEBIXShbT0hdKVtDQEBdMShbQ0gzXSlbQ0BIXShbQ0BIXTJbT0hdKVtDQF0oW0NIMl0zKShbQ0gzXSlbQ0BdMihbQ0gzXSlbQ0BASF0oW0NAQF0zNDUpW0NIMl1bQ0BASF0oW09IXSlbQ0gyXVtDQEBIXTRbQ0BASF0oW0NIM10pW0NIMl1bQ0BIXTVbT0hd

>  <s_epik_cmdline>  (69) 
J2VwaWtfcHl0aG9uJywgJy1waHQnLCAnMi4wJywgJy1waCcsICc3LjAnLCAnLXRuJywgJzgnLCAnLW1hJywgJzIwMCcsICctaW1hZScsICc8aW5maWxlLm1hZT4nLCAnLW9tYWUnLCAnPG91dGZpbGUubWFlPic=

>  <r_lp_tautomer_probability>  (69) 
1

>  <r_epik_Ionization_Penalty>  (69) 
5.8938e-06

>  <r_epik_Ionization_Penalty_Charging>  (69) 
0

>  <r_epik_Ionization_Penalty_Neutral>  (69) 
5.8938e-06

>  <r_epik_State_Penalty>  (69) 
-0

>  <r_epik_Charging_Adjusted_Penalty>  (69) 
0

>  <i_epik_Tot_Q>  (69) 
0

>  <i_epik_Tot_abs_Q>  (69) 
0

>  <s_lp_Force_Field>  (69) 
OPLS3e

>  <r_lp_Energy>  (69) 
144.927

>  <b_lp_Chiralities_Consistent>  (69) 
1

>  <s_lp_Variant>  (69) 
23:0-1

>  <s_i_glide_gridfile>  (69) 
pfpi4k_grid

>  <i_i_glide_lignum>  (69) 
37

>  <i_i_glide_rotatable_bonds>  (69) 
7

>  <r_i_docking_score>  (69) 
-1.26753

>  <r_i_glide_ligand_efficiency>  (69) 
-0.0384099

>  <r_i_glide_ligand_efficiency_sa>  (69) 
-0.123201

>  <r_i_glide_ligand_efficiency_ln>  (69) 
-0.281892

>  <r_i_glide_gscore>  (69) 
-1.26753

>  <r_i_glide_lipo>  (69) 
-0.0482305

>  <r_i_glide_hbond>  (69) 
-0.0831639

>  <r_i_glide_metal>  (69) 
-0

>  <r_i_glide_rewards>  (69) 
-0.257766

>  <r_i_glide_evdw>  (69) 
-12.9751

>  <r_i_glide_ecoul>  (69) 
-2.15818

>  <r_i_glide_erotb>  (69) 
0.0941142

>  <r_i_glide_esite>  (69) 
0

>  <r_i_glide_emodel>  (69) 
-12.3704

>  <r_i_glide_energy>  (69) 
-15.1333

>  <r_i_glide_einternal>  (69) 
1.40235

>  <r_i_glide_intrahb_reward>  (69) 
-0

>  <i_i_glide_confnum>  (69) 
2

>  <i_i_glide_posenum>  (69) 
39

>  <r_i_glide_eff_state_penalty>  (69) 
0

>  <ligand_id>  (69) 
23

>  <original_smiles>  (69) 
CC(C)C1CC(O)C(C)(C2C(O)C3(C)C4CC(O)CC5C(C)CC(O)C54CC23C)C1(C)C=O

>  <smiles>  (69) 
[H]OC1([H])C([H])([H])C2([H])C([H])(C([H])([H])[H])C([H])([H])C([H])(O[H])C23C([H])([H])C2(C([H])([H])[H])C([H])(C4(C([H])([H])[H])C([H])(O[H])C([H])([H])C([H])(C([H])(C([H])([H])[H])C([H])([H])[H])C4(C([H])=O)C([H])([H])[H])C([H])(O[H])C2(C([H])([H])[H])C3([H])C1([H])[H]

$$$$
24:0:0
     RDKit          3D

 22 24  0  0  1  0  0  0  0  0999 V2000
    0.6135    1.2913    2.8897 N   0  0  0  0  0  0  0  0  0  0  0  0
   -0.1373    1.0611    3.9077 C   0  0  0  0  0  0  0  0  0  0  0  0
   -0.7422    2.0731    4.6639 N   0  0  0  0  0  0  0  0  0  0  0  0
   -1.5368    1.8692    5.8178 C   0  0  0  0  0  0  0  0  0  0  0  0
   -2.0294    2.9347    6.3751 N   0  0  0  0  0  0  0  0  0  0  0  0
   -2.9038    2.7267    7.5169 C   0  0  0  0  0  0  0  0  0  0  0  0
   -2.9717    3.9112    8.4503 C   0  0  0  0  0  0  0  0  0  0  0  0
   -2.1974    2.6782    8.8572 C   0  0  0  0  0  0  0  0  0  0  0  0
   -1.7161    0.5423    6.2998 N   0  0  0  0  0  0  0  0  0  0  0  0
   -1.1105   -0.3806    5.6102 C   0  0  0  0  0  0  0  0  0  0  0  0
   -0.9321   -1.7852    5.9356 N   0  0  0  0  0  0  0  0  0  0  0  0
   -0.2426   -2.3256    5.0385 N   0  0  0  0  0  0  0  0  0  0  0  0
    0.1234   -1.4020    4.0818 N   0  0  0  0  0  0  0  0  0  0  0  0
   -0.4290   -0.1855    4.4444 N   0  0  0  0  0  0  0  0  0  0  0  0
   -0.5942    3.0161    4.3319 H   0  0  0  0  0  0  0  0  0  0  0  0
    0.9877    0.4475    2.4852 H   0  0  0  0  0  0  0  0  0  0  0  0
   -3.7943    2.1487    7.3103 H   0  0  0  0  0  0  0  0  0  0  0  0
   -2.3945    4.8000    8.2177 H   0  0  0  0  0  0  0  0  0  0  0  0
   -3.9186    4.0922    8.9579 H   0  0  0  0  0  0  0  0  0  0  0  0
   -2.6397    2.0609    9.6379 H   0  0  0  0  0  0  0  0  0  0  0  0
   -1.1132    2.7536    8.8879 H   0  0  0  0  0  0  0  0  0  0  0  0
    0.0023   -1.7030    3.1139 H   0  0  0  0  0  0  0  0  0  0  0  0
  1  2  2  3
  1 16  1  0
  2 14  1  0
  2  3  1  0
  3 15  1  0
  3  4  1  0
  4  5  2  3
  4  9  1  0
  5  6  1  0
  6  8  1  0
  6  7  1  0
  6 17  1  0
  7  8  1  0
  7 18  1  0
  7 19  1  0
  8 20  1  0
  8 21  1  0
  9 10  2  0
 10 14  1  0
 10 11  1  0
 11 12  2  0
 12 13  1  0
 13 14  1  0
 13 22  1  0
M  END
>  <i_m_ct_stereo_status>  (70) 
1

>  <s_m_source_file>  (70) 
/var/tmp/pbs.5076255.sched01/tmpgn4o3w3f/0whq8s7pj.sdf

>  <i_m_source_file_index>  (70) 
38

>  <i_lp_mmshare_version>  (70) 
48012

>  <i_f3d_flags>  (70) 
0

>  <s_epik_input>  (70) 
bjFuW25IXW4oYzEyKWMoPU5cW0hdKS9bbkhdL2MobjIpPU4vW0NIXTNbQ0gyXVtDSDJdMw==

>  <s_epik_cmdline>  (70) 
J2VwaWtfcHl0aG9uJywgJy1waHQnLCAnMi4wJywgJy1waCcsICc3LjAnLCAnLXRuJywgJzgnLCAnLW1hJywgJzIwMCcsICctaW1hZScsICc8aW5maWxlLm1hZT4nLCAnLW9tYWUnLCAnPG91dGZpbGUubWFlPic=

>  <r_lp_tautomer_probability>  (70) 
1

>  <r_epik_Ionization_Penalty>  (70) 
36.6595

>  <r_epik_Ionization_Penalty_Charging>  (70) 
36.6595

>  <r_epik_Ionization_Penalty_Neutral>  (70) 
1.00605e-08

>  <r_epik_State_Penalty>  (70) 
-0

>  <r_epik_Charging_Adjusted_Penalty>  (70) 
36.6595

>  <i_epik_Tot_Q>  (70) 
0

>  <i_epik_Tot_abs_Q>  (70) 
0

>  <s_lp_Force_Field>  (70) 
OPLS3e

>  <r_lp_Energy>  (70) 
14.6766

>  <b_lp_Chiralities_Consistent>  (70) 
1

>  <s_lp_Variant>  (70) 
24:0-1

>  <s_i_glide_gridfile>  (70) 
pfpi4k_grid

>  <i_i_glide_lignum>  (70) 
38

>  <i_i_glide_rotatable_bonds>  (70) 
1

>  <r_i_docking_score>  (70) 
-4.61891

>  <r_i_glide_ligand_efficiency>  (70) 
-0.329922

>  <r_i_glide_ligand_efficiency_sa>  (70) 
-0.79516

>  <r_i_glide_ligand_efficiency_ln>  (70) 
-1.26926

>  <r_i_glide_gscore>  (70) 
-4.61891

>  <r_i_glide_lipo>  (70) 
-0.28127

>  <r_i_glide_hbond>  (70) 
-0.132538

>  <r_i_glide_metal>  (70) 
-0

>  <r_i_glide_rewards>  (70) 
-2.09876

>  <r_i_glide_evdw>  (70) 
-18.7819

>  <r_i_glide_ecoul>  (70) 
-6.53194

>  <r_i_glide_erotb>  (70) 
0

>  <r_i_glide_esite>  (70) 
-0.18745

>  <r_i_glide_emodel>  (70) 
-33.7864

>  <r_i_glide_energy>  (70) 
-25.3139

>  <r_i_glide_einternal>  (70) 
0.00216569

>  <r_i_glide_intrahb_reward>  (70) 
-0

>  <i_i_glide_confnum>  (70) 
1

>  <i_i_glide_posenum>  (70) 
33

>  <r_i_glide_eff_state_penalty>  (70) 
0

>  <ligand_id>  (70) 
24

>  <original_smiles>  (70) 
N=c1[nH]c(=NC2CC2)nc2nn[nH]n12

>  <smiles>  (70) 
[H]N=c1n([H])c(=NC2([H])C([H])([H])C2([H])[H])nc2nnn([H])n12

$$$$
24:0:1
     RDKit          3D

 22 24  0  0  1  0  0  0  0  0999 V2000
    0.2554    4.8847    3.6776 N   0  0  0  0  0  0  0  0  0  0  0  0
   -0.3792    4.0338    4.3908 C   0  0  0  0  0  0  0  0  0  0  0  0
   -0.7639    4.2551    5.7243 N   0  0  0  0  0  0  0  0  0  0  0  0
   -1.4760    3.3493    6.5437 C   0  0  0  0  0  0  0  0  0  0  0  0
   -1.7927    3.7517    7.7318 N   0  0  0  0  0  0  0  0  0  0  0  0
   -2.4769    2.7994    8.5968 C   0  0  0  0  0  0  0  0  0  0  0  0
   -3.7678    3.3483    9.1391 C   0  0  0  0  0  0  0  0  0  0  0  0
   -2.5552    3.2404   10.0341 C   0  0  0  0  0  0  0  0  0  0  0  0
   -1.7638    2.0573    6.0304 N   0  0  0  0  0  0  0  0  0  0  0  0
   -1.3563    1.8349    4.8144 C   0  0  0  0  0  0  0  0  0  0  0  0
   -1.3391    0.5898    4.0715 N   0  0  0  0  0  0  0  0  0  0  0  0
   -0.8670    0.8136    2.9220 N   0  0  0  0  0  0  0  0  0  0  0  0
   -0.4990    2.1408    2.7898 N   0  0  0  0  0  0  0  0  0  0  0  0
   -0.7869    2.7672    3.9856 N   0  0  0  0  0  0  0  0  0  0  0  0
   -0.4821    5.1425    6.1203 H   0  0  0  0  0  0  0  0  0  0  0  0
    0.4437    4.5499    2.7351 H   0  0  0  0  0  0  0  0  0  0  0  0
   -2.3685    1.7337    8.3836 H   0  0  0  0  0  0  0  0  0  0  0  0
   -4.0784    4.3556    8.8714 H   0  0  0  0  0  0  0  0  0  0  0  0
   -4.5792    2.6512    9.3154 H   0  0  0  0  0  0  0  0  0  0  0  0
   -2.5730    2.4626   10.7936 H   0  0  0  0  0  0  0  0  0  0  0  0
   -2.0789    4.1693   10.3405 H   0  0  0  0  0  0  0  0  0  0  0  0
   -0.6642    2.6225    1.8985 H   0  0  0  0  0  0  0  0  0  0  0  0
  1  2  2  3
  1 16  1  0
  2 14  1  0
  2  3  1  0
  3 15  1  0
  3  4  1  0
  4  5  2  3
  4  9  1  0
  5  6  1  0
  6  8  1  0
  6  7  1  0
  6 17  1  0
  7  8  1  0
  7 18  1  0
  7 19  1  0
  8 20  1  0
  8 21  1  0
  9 10  2  0
 10 14  1  0
 10 11  1  0
 11 12  2  0
 12 13  1  0
 13 14  1  0
 13 22  1  0
M  END
>  <i_m_ct_stereo_status>  (71) 
1

>  <s_m_source_file>  (71) 
/var/tmp/pbs.5076255.sched01/tmpgn4o3w3f/0whq8s7pj.sdf

>  <i_m_source_file_index>  (71) 
38

>  <i_lp_mmshare_version>  (71) 
48012

>  <i_f3d_flags>  (71) 
0

>  <s_epik_input>  (71) 
bjFuW25IXW4oYzEyKWMoPU5cW0hdKS9bbkhdL2MobjIpPU4vW0NIXTNbQ0gyXVtDSDJdMw==

>  <s_epik_cmdline>  (71) 
J2VwaWtfcHl0aG9uJywgJy1waHQnLCAnMi4wJywgJy1waCcsICc3LjAnLCAnLXRuJywgJzgnLCAnLW1hJywgJzIwMCcsICctaW1hZScsICc8aW5maWxlLm1hZT4nLCAnLW9tYWUnLCAnPG91dGZpbGUubWFlPic=

>  <r_lp_tautomer_probability>  (71) 
1

>  <r_epik_Ionization_Penalty>  (71) 
36.6595

>  <r_epik_Ionization_Penalty_Charging>  (71) 
36.6595

>  <r_epik_Ionization_Penalty_Neutral>  (71) 
1.00605e-08

>  <r_epik_State_Penalty>  (71) 
-0

>  <r_epik_Charging_Adjusted_Penalty>  (71) 
36.6595

>  <i_epik_Tot_Q>  (71) 
0

>  <i_epik_Tot_abs_Q>  (71) 
0

>  <s_lp_Force_Field>  (71) 
OPLS3e

>  <r_lp_Energy>  (71) 
14.6766

>  <b_lp_Chiralities_Consistent>  (71) 
1

>  <s_lp_Variant>  (71) 
24:0-1

>  <s_i_glide_gridfile>  (71) 
pfpi4k_grid

>  <i_i_glide_lignum>  (71) 
38

>  <i_i_glide_rotatable_bonds>  (71) 
1

>  <r_i_docking_score>  (71) 
-4.41549

>  <r_i_glide_ligand_efficiency>  (71) 
-0.315392

>  <r_i_glide_ligand_efficiency_sa>  (71) 
-0.760139

>  <r_i_glide_ligand_efficiency_ln>  (71) 
-1.21336

>  <r_i_glide_gscore>  (71) 
-4.41549

>  <r_i_glide_lipo>  (71) 
-0.0887252

>  <r_i_glide_hbond>  (71) 
-0.237291

>  <r_i_glide_metal>  (71) 
-0

>  <r_i_glide_rewards>  (71) 
-2.15217

>  <r_i_glide_evdw>  (71) 
-20.2771

>  <r_i_glide_ecoul>  (71) 
-4.27895

>  <r_i_glide_erotb>  (71) 
0

>  <r_i_glide_esite>  (71) 
-0.281605

>  <r_i_glide_emodel>  (71) 
-32.1192

>  <r_i_glide_energy>  (71) 
-24.5561

>  <r_i_glide_einternal>  (71) 
0.699939

>  <r_i_glide_intrahb_reward>  (71) 
-0

>  <i_i_glide_confnum>  (71) 
1

>  <i_i_glide_posenum>  (71) 
17

>  <r_i_glide_eff_state_penalty>  (71) 
0

>  <ligand_id>  (71) 
24

>  <original_smiles>  (71) 
N=c1[nH]c(=NC2CC2)nc2nn[nH]n12

>  <smiles>  (71) 
[H]N=c1n([H])c(=NC2([H])C([H])([H])C2([H])[H])nc2nnn([H])n12

$$$$
24:0:2
     RDKit          3D

 22 24  0  0  1  0  0  0  0  0999 V2000
    4.4472   -2.6399   -2.1126 N   0  0  0  0  0  0  0  0  0  0  0  0
    3.9473   -2.9712   -0.9899 C   0  0  0  0  0  0  0  0  0  0  0  0
    3.4225   -4.2450   -0.7015 N   0  0  0  0  0  0  0  0  0  0  0  0
    2.8342   -4.6366    0.5240 C   0  0  0  0  0  0  0  0  0  0  0  0
    2.4077   -5.8538    0.6263 N   0  0  0  0  0  0  0  0  0  0  0  0
    1.8483   -6.2590    1.9147 C   0  0  0  0  0  0  0  0  0  0  0  0
    1.6246   -7.7480    2.0033 C   0  0  0  0  0  0  0  0  0  0  0  0
    0.4486   -6.8170    1.8115 C   0  0  0  0  0  0  0  0  0  0  0  0
    2.7092   -3.6581    1.5502 N   0  0  0  0  0  0  0  0  0  0  0  0
    3.1611   -2.4757    1.2689 C   0  0  0  0  0  0  0  0  0  0  0  0
    3.0364   -1.2410    2.0296 N   0  0  0  0  0  0  0  0  0  0  0  0
    3.5907   -0.3091    1.4018 N   0  0  0  0  0  0  0  0  0  0  0  0
    4.1163   -0.7822    0.2179 N   0  0  0  0  0  0  0  0  0  0  0  0
    3.8046   -2.1369    0.1231 N   0  0  0  0  0  0  0  0  0  0  0  0
    3.4121   -4.9250   -1.4572 H   0  0  0  0  0  0  0  0  0  0  0  0
    4.6953   -1.6627   -2.1197 H   0  0  0  0  0  0  0  0  0  0  0  0
    2.1834   -5.7307    2.8073 H   0  0  0  0  0  0  0  0  0  0  0  0
    1.8857   -8.3907    1.1678 H   0  0  0  0  0  0  0  0  0  0  0  0
    1.7410   -8.2052    2.9842 H   0  0  0  0  0  0  0  0  0  0  0  0
   -0.2019   -6.6693    2.6718 H   0  0  0  0  0  0  0  0  0  0  0  0
   -0.0531   -6.8566    0.8482 H   0  0  0  0  0  0  0  0  0  0  0  0
    5.0467   -0.4468   -0.0331 H   0  0  0  0  0  0  0  0  0  0  0  0
  1  2  2  3
  1 16  1  0
  2 14  1  0
  2  3  1  0
  3 15  1  0
  3  4  1  0
  4  5  2  3
  4  9  1  0
  5  6  1  0
  6  8  1  0
  6  7  1  0
  6 17  1  0
  7  8  1  0
  7 18  1  0
  7 19  1  0
  8 20  1  0
  8 21  1  0
  9 10  2  0
 10 14  1  0
 10 11  1  0
 11 12  2  0
 12 13  1  0
 13 14  1  0
 13 22  1  0
M  END
>  <i_m_ct_stereo_status>  (72) 
1

>  <s_m_source_file>  (72) 
/var/tmp/pbs.5076255.sched01/tmpgn4o3w3f/0whq8s7pj.sdf

>  <i_m_source_file_index>  (72) 
38

>  <i_lp_mmshare_version>  (72) 
48012

>  <i_f3d_flags>  (72) 
0

>  <s_epik_input>  (72) 
bjFuW25IXW4oYzEyKWMoPU5cW0hdKS9bbkhdL2MobjIpPU4vW0NIXTNbQ0gyXVtDSDJdMw==

>  <s_epik_cmdline>  (72) 
J2VwaWtfcHl0aG9uJywgJy1waHQnLCAnMi4wJywgJy1waCcsICc3LjAnLCAnLXRuJywgJzgnLCAnLW1hJywgJzIwMCcsICctaW1hZScsICc8aW5maWxlLm1hZT4nLCAnLW9tYWUnLCAnPG91dGZpbGUubWFlPic=

>  <r_lp_tautomer_probability>  (72) 
1

>  <r_epik_Ionization_Penalty>  (72) 
36.6595

>  <r_epik_Ionization_Penalty_Charging>  (72) 
36.6595

>  <r_epik_Ionization_Penalty_Neutral>  (72) 
1.00605e-08

>  <r_epik_State_Penalty>  (72) 
-0

>  <r_epik_Charging_Adjusted_Penalty>  (72) 
36.6595

>  <i_epik_Tot_Q>  (72) 
0

>  <i_epik_Tot_abs_Q>  (72) 
0

>  <s_lp_Force_Field>  (72) 
OPLS3e

>  <r_lp_Energy>  (72) 
14.6766

>  <b_lp_Chiralities_Consistent>  (72) 
1

>  <s_lp_Variant>  (72) 
24:0-1

>  <s_i_glide_gridfile>  (72) 
pfpi4k_grid

>  <i_i_glide_lignum>  (72) 
38

>  <i_i_glide_rotatable_bonds>  (72) 
1

>  <r_i_docking_score>  (72) 
-4.31041

>  <r_i_glide_ligand_efficiency>  (72) 
-0.307886

>  <r_i_glide_ligand_efficiency_sa>  (72) 
-0.74205

>  <r_i_glide_ligand_efficiency_ln>  (72) 
-1.18449

>  <r_i_glide_gscore>  (72) 
-4.31041

>  <r_i_glide_lipo>  (72) 
0

>  <r_i_glide_hbond>  (72) 
-0.32

>  <r_i_glide_metal>  (72) 
-0

>  <r_i_glide_rewards>  (72) 
-2.09876

>  <r_i_glide_evdw>  (72) 
-18.6779

>  <r_i_glide_ecoul>  (72) 
-5.44237

>  <r_i_glide_erotb>  (72) 
0

>  <r_i_glide_esite>  (72) 
-0.141396

>  <r_i_glide_emodel>  (72) 
-31.5718

>  <r_i_glide_energy>  (72) 
-24.1202

>  <r_i_glide_einternal>  (72) 
0.589467

>  <r_i_glide_intrahb_reward>  (72) 
-0

>  <i_i_glide_confnum>  (72) 
1

>  <i_i_glide_posenum>  (72) 
5

>  <r_i_glide_eff_state_penalty>  (72) 
0

>  <ligand_id>  (72) 
24

>  <original_smiles>  (72) 
N=c1[nH]c(=NC2CC2)nc2nn[nH]n12

>  <smiles>  (72) 
[H]N=c1n([H])c(=NC2([H])C([H])([H])C2([H])[H])nc2nnn([H])n12

$$$$
24:1:0
     RDKit          3D

 22 24  0  0  1  0  0  0  0  0999 V2000
    3.0844   -2.6762    1.2196 N   0  0  0  0  0  0  0  0  0  0  0  0
    3.6396   -2.4919    0.0826 C   0  0  0  0  0  0  0  0  0  0  0  0
    3.0292   -1.8410   -1.0123 N   0  0  0  0  0  0  0  0  0  0  0  0
    3.6928   -1.5477   -2.2300 C   0  0  0  0  0  0  0  0  0  0  0  0
    3.0159   -0.9309   -3.1348 N   0  0  0  0  0  0  0  0  0  0  0  0
    3.6531   -0.6858   -4.4054 C   0  0  0  0  0  0  0  0  0  0  0  0
    3.9628    0.7602   -4.6585 C   0  0  0  0  0  0  0  0  0  0  0  0
    2.7846    0.1476   -5.3187 C   0  0  0  0  0  0  0  0  0  0  0  0
    5.0521   -1.9031   -2.3856 N   0  0  0  0  0  0  0  0  0  0  0  0
    5.5979   -2.5001   -1.3648 C   0  0  0  0  0  0  0  0  0  0  0  0
    7.0027   -2.8129   -1.1423 N   0  0  0  0  0  0  0  0  0  0  0  0
    7.1277   -3.3307   -0.0042 N   0  0  0  0  0  0  0  0  0  0  0  0
    5.8972   -3.3955    0.6208 N   0  0  0  0  0  0  0  0  0  0  0  0
    4.9435   -2.8600   -0.2270 N   0  0  0  0  0  0  0  0  0  0  0  0
    2.0491   -1.4769   -0.9357 H   0  0  0  0  0  0  0  0  0  0  0  0
    2.1618   -2.2668    1.2490 H   0  0  0  0  0  0  0  0  0  0  0  0
    4.2533   -1.4960   -4.8240 H   0  0  0  0  0  0  0  0  0  0  0  0
    3.8113    1.4887   -3.8660 H   0  0  0  0  0  0  0  0  0  0  0  0
    4.8184    0.9348   -5.2929 H   0  0  0  0  0  0  0  0  0  0  0  0
    2.9055   -0.0276   -6.3810 H   0  0  0  0  0  0  0  0  0  0  0  0
    1.8076    0.4986   -5.0022 H   0  0  0  0  0  0  0  0  0  0  0  0
    5.6788   -4.2437    1.1430 H   0  0  0  0  0  0  0  0  0  0  0  0
  1  2  2  3
  1 16  1  0
  2 14  1  0
  2  3  1  0
  3 15  1  0
  3  4  1  0
  4  5  2  3
  4  9  1  0
  5  6  1  0
  6  8  1  0
  6  7  1  0
  6 17  1  0
  7  8  1  0
  7 18  1  0
  7 19  1  0
  8 20  1  0
  8 21  1  0
  9 10  2  0
 10 14  1  0
 10 11  1  0
 11 12  2  0
 12 13  1  0
 13 14  1  0
 13 22  1  0
M  END
>  <i_m_ct_stereo_status>  (73) 
1

>  <s_m_source_file>  (73) 
/var/tmp/pbs.5076255.sched01/tmpgn4o3w3f/0whq8s7pj.sdf

>  <i_m_source_file_index>  (73) 
39

>  <i_lp_mmshare_version>  (73) 
48012

>  <i_f3d_flags>  (73) 
0

>  <s_epik_input>  (73) 
bjFuW25IXW4oYzEyKWMoPU5cW0hdKS9bbkhdL2MobjIpPU4vW0NIXTNbQ0gyXVtDSDJdMw==

>  <s_epik_cmdline>  (73) 
J2VwaWtfcHl0aG9uJywgJy1waHQnLCAnMi4wJywgJy1waCcsICc3LjAnLCAnLXRuJywgJzgnLCAnLW1hJywgJzIwMCcsICctaW1hZScsICc8aW5maWxlLm1hZT4nLCAnLW9tYWUnLCAnPG91dGZpbGUubWFlPic=

>  <r_lp_tautomer_probability>  (73) 
1

>  <r_epik_Ionization_Penalty>  (73) 
36.6595

>  <r_epik_Ionization_Penalty_Charging>  (73) 
36.6595

>  <r_epik_Ionization_Penalty_Neutral>  (73) 
1.00605e-08

>  <r_epik_State_Penalty>  (73) 
-0

>  <r_epik_Charging_Adjusted_Penalty>  (73) 
36.6595

>  <i_epik_Tot_Q>  (73) 
0

>  <i_epik_Tot_abs_Q>  (73) 
0

>  <s_lp_Force_Field>  (73) 
OPLS3e

>  <r_lp_Energy>  (73) 
13.7562

>  <b_lp_Chiralities_Consistent>  (73) 
1

>  <s_lp_Variant>  (73) 
24:0-2

>  <s_i_glide_gridfile>  (73) 
pfpi4k_grid

>  <i_i_glide_lignum>  (73) 
39

>  <i_i_glide_rotatable_bonds>  (73) 
1

>  <r_i_docking_score>  (73) 
-5.18604

>  <r_i_glide_ligand_efficiency>  (73) 
-0.370431

>  <r_i_glide_ligand_efficiency_sa>  (73) 
-0.892792

>  <r_i_glide_ligand_efficiency_ln>  (73) 
-1.4251

>  <r_i_glide_gscore>  (73) 
-5.18604

>  <r_i_glide_lipo>  (73) 
-0.403853

>  <r_i_glide_hbond>  (73) 
-0.111213

>  <r_i_glide_metal>  (73) 
-0

>  <r_i_glide_rewards>  (73) 
-2.11432

>  <r_i_glide_evdw>  (73) 
-16.8544

>  <r_i_glide_ecoul>  (73) 
-9.946

>  <r_i_glide_erotb>  (73) 
0

>  <r_i_glide_esite>  (73) 
-0.222036

>  <r_i_glide_emodel>  (73) 
-35.9524

>  <r_i_glide_energy>  (73) 
-26.8004

>  <r_i_glide_einternal>  (73) 
0.167632

>  <r_i_glide_intrahb_reward>  (73) 
-0

>  <i_i_glide_confnum>  (73) 
1

>  <i_i_glide_posenum>  (73) 
30

>  <r_i_glide_eff_state_penalty>  (73) 
0

>  <ligand_id>  (73) 
24

>  <original_smiles>  (73) 
N=c1[nH]c(=NC2CC2)nc2nn[nH]n12

>  <smiles>  (73) 
[H]N=c1n([H])c(=NC2([H])C([H])([H])C2([H])[H])nc2nnn([H])n12

$$$$
24:1:1
     RDKit          3D

 22 24  0  0  1  0  0  0  0  0999 V2000
    2.6102   -0.2681    0.9498 N   0  0  0  0  0  0  0  0  0  0  0  0
    1.9787    0.4316    1.8157 C   0  0  0  0  0  0  0  0  0  0  0  0
    0.6250    0.8222    1.7271 N   0  0  0  0  0  0  0  0  0  0  0  0
   -0.0948    1.5394    2.7073 C   0  0  0  0  0  0  0  0  0  0  0  0
   -1.3339    1.8013    2.4649 N   0  0  0  0  0  0  0  0  0  0  0  0
   -2.0738    2.4964    3.4938 C   0  0  0  0  0  0  0  0  0  0  0  0
   -3.2397    3.2626    2.9184 C   0  0  0  0  0  0  0  0  0  0  0  0
   -2.0081    4.0032    3.3854 C   0  0  0  0  0  0  0  0  0  0  0  0
    0.5644    1.8802    3.9257 N   0  0  0  0  0  0  0  0  0  0  0  0
    1.8096    1.5144    4.0029 C   0  0  0  0  0  0  0  0  0  0  0  0
    2.7214    1.5715    5.1462 N   0  0  0  0  0  0  0  0  0  0  0  0
    3.8335    1.0903    4.8122 N   0  0  0  0  0  0  0  0  0  0  0  0
    3.7926    0.6651    3.5007 N   0  0  0  0  0  0  0  0  0  0  0  0
    2.5221    0.9037    3.0122 N   0  0  0  0  0  0  0  0  0  0  0  0
    0.1414    0.5994    0.8546 H   0  0  0  0  0  0  0  0  0  0  0  0
    1.9629   -0.5633    0.1861 H   0  0  0  0  0  0  0  0  0  0  0  0
   -2.1667    1.9648    4.4463 H   0  0  0  0  0  0  0  0  0  0  0  0
   -3.4256    3.2361    1.8464 H   0  0  0  0  0  0  0  0  0  0  0  0
   -4.1296    3.3409    3.5310 H   0  0  0  0  0  0  0  0  0  0  0  0
   -2.0657    4.5515    4.3202 H   0  0  0  0  0  0  0  0  0  0  0  0
   -1.3770    4.4517    2.6192 H   0  0  0  0  0  0  0  0  0  0  0  0
    4.5912    0.8884    2.9065 H   0  0  0  0  0  0  0  0  0  0  0  0
  1  2  2  3
  1 16  1  0
  2 14  1  0
  2  3  1  0
  3 15  1  0
  3  4  1  0
  4  5  2  3
  4  9  1  0
  5  6  1  0
  6  8  1  0
  6  7  1  0
  6 17  1  0
  7  8  1  0
  7 18  1  0
  7 19  1  0
  8 20  1  0
  8 21  1  0
  9 10  2  0
 10 14  1  0
 10 11  1  0
 11 12  2  0
 12 13  1  0
 13 14  1  0
 13 22  1  0
M  END
>  <i_m_ct_stereo_status>  (74) 
1

>  <s_m_source_file>  (74) 
/var/tmp/pbs.5076255.sched01/tmpgn4o3w3f/0whq8s7pj.sdf

>  <i_m_source_file_index>  (74) 
39

>  <i_lp_mmshare_version>  (74) 
48012

>  <i_f3d_flags>  (74) 
0

>  <s_epik_input>  (74) 
bjFuW25IXW4oYzEyKWMoPU5cW0hdKS9bbkhdL2MobjIpPU4vW0NIXTNbQ0gyXVtDSDJdMw==

>  <s_epik_cmdline>  (74) 
J2VwaWtfcHl0aG9uJywgJy1waHQnLCAnMi4wJywgJy1waCcsICc3LjAnLCAnLXRuJywgJzgnLCAnLW1hJywgJzIwMCcsICctaW1hZScsICc8aW5maWxlLm1hZT4nLCAnLW9tYWUnLCAnPG91dGZpbGUubWFlPic=

>  <r_lp_tautomer_probability>  (74) 
1

>  <r_epik_Ionization_Penalty>  (74) 
36.6595

>  <r_epik_Ionization_Penalty_Charging>  (74) 
36.6595

>  <r_epik_Ionization_Penalty_Neutral>  (74) 
1.00605e-08

>  <r_epik_State_Penalty>  (74) 
-0

>  <r_epik_Charging_Adjusted_Penalty>  (74) 
36.6595

>  <i_epik_Tot_Q>  (74) 
0

>  <i_epik_Tot_abs_Q>  (74) 
0

>  <s_lp_Force_Field>  (74) 
OPLS3e

>  <r_lp_Energy>  (74) 
13.7562

>  <b_lp_Chiralities_Consistent>  (74) 
1

>  <s_lp_Variant>  (74) 
24:0-2

>  <s_i_glide_gridfile>  (74) 
pfpi4k_grid

>  <i_i_glide_lignum>  (74) 
39

>  <i_i_glide_rotatable_bonds>  (74) 
1

>  <r_i_docking_score>  (74) 
-4.58814

>  <r_i_glide_ligand_efficiency>  (74) 
-0.327725

>  <r_i_glide_ligand_efficiency_sa>  (74) 
-0.789863

>  <r_i_glide_ligand_efficiency_ln>  (74) 
-1.26081

>  <r_i_glide_gscore>  (74) 
-4.58814

>  <r_i_glide_lipo>  (74) 
0

>  <r_i_glide_hbond>  (74) 
-0.458623

>  <r_i_glide_metal>  (74) 
-0

>  <r_i_glide_rewards>  (74) 
-2.09876

>  <r_i_glide_evdw>  (74) 
-16.325

>  <r_i_glide_ecoul>  (74) 
-6.72889

>  <r_i_glide_erotb>  (74) 
0

>  <r_i_glide_esite>  (74) 
-0.205172

>  <r_i_glide_emodel>  (74) 
-31.38

>  <r_i_glide_energy>  (74) 
-23.0539

>  <r_i_glide_einternal>  (74) 
0.00259791

>  <r_i_glide_intrahb_reward>  (74) 
-0

>  <i_i_glide_confnum>  (74) 
2

>  <i_i_glide_posenum>  (74) 
35

>  <r_i_glide_eff_state_penalty>  (74) 
0

>  <ligand_id>  (74) 
24

>  <original_smiles>  (74) 
N=c1[nH]c(=NC2CC2)nc2nn[nH]n12

>  <smiles>  (74) 
[H]N=c1n([H])c(=NC2([H])C([H])([H])C2([H])[H])nc2nnn([H])n12

$$$$
24:1:2
     RDKit          3D

 22 24  0  0  1  0  0  0  0  0999 V2000
    6.1794   -1.0907    2.0330 N   0  0  0  0  0  0  0  0  0  0  0  0
    5.4645   -1.5710    1.0798 C   0  0  0  0  0  0  0  0  0  0  0  0
    5.1075   -0.8989   -0.1005 N   0  0  0  0  0  0  0  0  0  0  0  0
    4.3680   -1.4524   -1.1573 C   0  0  0  0  0  0  0  0  0  0  0  0
    4.1769   -0.6814   -2.1829 N   0  0  0  0  0  0  0  0  0  0  0  0
    3.3116   -1.2032   -3.2161 C   0  0  0  0  0  0  0  0  0  0  0  0
    4.0001   -2.1776   -4.1407 C   0  0  0  0  0  0  0  0  0  0  0  0
    3.7469   -0.7524   -4.5836 C   0  0  0  0  0  0  0  0  0  0  0  0
    3.9354   -2.8030   -1.0715 N   0  0  0  0  0  0  0  0  0  0  0  0
    4.3164   -3.4390   -0.0002 C   0  0  0  0  0  0  0  0  0  0  0  0
    4.2498   -4.8626    0.3006 N   0  0  0  0  0  0  0  0  0  0  0  0
    4.7491   -5.0577    1.4429 N   0  0  0  0  0  0  0  0  0  0  0  0
    5.2045   -3.8775    1.9885 N   0  0  0  0  0  0  0  0  0  0  0  0
    4.9498   -2.8681    1.0695 N   0  0  0  0  0  0  0  0  0  0  0  0
    5.3202    0.0886   -0.1877 H   0  0  0  0  0  0  0  0  0  0  0  0
    6.5245   -0.1539    1.8428 H   0  0  0  0  0  0  0  0  0  0  0  0
    2.2600   -1.3065   -2.9504 H   0  0  0  0  0  0  0  0  0  0  0  0
    5.0193   -2.4688   -3.9018 H   0  0  0  0  0  0  0  0  0  0  0  0
    3.3900   -2.9675   -4.5761 H   0  0  0  0  0  0  0  0  0  0  0  0
    2.9934   -0.6129   -5.3507 H   0  0  0  0  0  0  0  0  0  0  0  0
    4.6136   -0.1009   -4.6719 H   0  0  0  0  0  0  0  0  0  0  0  0
    5.0468   -3.6976    2.9771 H   0  0  0  0  0  0  0  0  0  0  0  0
  1  2  2  3
  1 16  1  0
  2 14  1  0
  2  3  1  0
  3 15  1  0
  3  4  1  0
  4  5  2  3
  4  9  1  0
  5  6  1  0
  6  8  1  0
  6  7  1  0
  6 17  1  0
  7  8  1  0
  7 18  1  0
  7 19  1  0
  8 20  1  0
  8 21  1  0
  9 10  2  0
 10 14  1  0
 10 11  1  0
 11 12  2  0
 12 13  1  0
 13 14  1  0
 13 22  1  0
M  END
>  <i_m_ct_stereo_status>  (75) 
1

>  <s_m_source_file>  (75) 
/var/tmp/pbs.5076255.sched01/tmpgn4o3w3f/0whq8s7pj.sdf

>  <i_m_source_file_index>  (75) 
39

>  <i_lp_mmshare_version>  (75) 
48012

>  <i_f3d_flags>  (75) 
0

>  <s_epik_input>  (75) 
bjFuW25IXW4oYzEyKWMoPU5cW0hdKS9bbkhdL2MobjIpPU4vW0NIXTNbQ0gyXVtDSDJdMw==

>  <s_epik_cmdline>  (75) 
J2VwaWtfcHl0aG9uJywgJy1waHQnLCAnMi4wJywgJy1waCcsICc3LjAnLCAnLXRuJywgJzgnLCAnLW1hJywgJzIwMCcsICctaW1hZScsICc8aW5maWxlLm1hZT4nLCAnLW9tYWUnLCAnPG91dGZpbGUubWFlPic=

>  <r_lp_tautomer_probability>  (75) 
1

>  <r_epik_Ionization_Penalty>  (75) 
36.6595

>  <r_epik_Ionization_Penalty_Charging>  (75) 
36.6595

>  <r_epik_Ionization_Penalty_Neutral>  (75) 
1.00605e-08

>  <r_epik_State_Penalty>  (75) 
-0

>  <r_epik_Charging_Adjusted_Penalty>  (75) 
36.6595

>  <i_epik_Tot_Q>  (75) 
0

>  <i_epik_Tot_abs_Q>  (75) 
0

>  <s_lp_Force_Field>  (75) 
OPLS3e

>  <r_lp_Energy>  (75) 
13.7562

>  <b_lp_Chiralities_Consistent>  (75) 
1

>  <s_lp_Variant>  (75) 
24:0-2

>  <s_i_glide_gridfile>  (75) 
pfpi4k_grid

>  <i_i_glide_lignum>  (75) 
39

>  <i_i_glide_rotatable_bonds>  (75) 
1

>  <r_i_docking_score>  (75) 
-4.49356

>  <r_i_glide_ligand_efficiency>  (75) 
-0.320969

>  <r_i_glide_ligand_efficiency_sa>  (75) 
-0.77358

>  <r_i_glide_ligand_efficiency_ln>  (75) 
-1.23481

>  <r_i_glide_gscore>  (75) 
-4.49356

>  <r_i_glide_lipo>  (75) 
-0.182082

>  <r_i_glide_hbond>  (75) 
-0.548015

>  <r_i_glide_metal>  (75) 
-0

>  <r_i_glide_rewards>  (75) 
-2.32464

>  <r_i_glide_evdw>  (75) 
-21.0903

>  <r_i_glide_ecoul>  (75) 
-2.27357

>  <r_i_glide_erotb>  (75) 
0

>  <r_i_glide_esite>  (75) 
-0.0432687

>  <r_i_glide_emodel>  (75) 
-31.2807

>  <r_i_glide_energy>  (75) 
-23.3639

>  <r_i_glide_einternal>  (75) 
0.239685

>  <r_i_glide_intrahb_reward>  (75) 
-0

>  <i_i_glide_confnum>  (75) 
1

>  <i_i_glide_posenum>  (75) 
20

>  <r_i_glide_eff_state_penalty>  (75) 
0

>  <ligand_id>  (75) 
24

>  <original_smiles>  (75) 
N=c1[nH]c(=NC2CC2)nc2nn[nH]n12

>  <smiles>  (75) 
[H]N=c1n([H])c(=NC2([H])C([H])([H])C2([H])[H])nc2nnn([H])n12

$$$$
24:2:0
     RDKit          3D

 22 24  0  0  1  0  0  0  0  0999 V2000
   -1.0872    4.1963    3.2917 N   0  0  0  0  0  0  0  0  0  0  0  0
   -1.1155    3.0435    3.8421 C   0  0  0  0  0  0  0  0  0  0  0  0
   -1.6649    2.8123    5.1099 N   0  0  0  0  0  0  0  0  0  0  0  0
   -1.6667    1.5838    5.8068 C   0  0  0  0  0  0  0  0  0  0  0  0
   -2.1669    1.4797    6.9998 N   0  0  0  0  0  0  0  0  0  0  0  0
   -2.8004    2.6234    7.6147 C   0  0  0  0  0  0  0  0  0  0  0  0
   -1.8259    3.5772    8.2643 C   0  0  0  0  0  0  0  0  0  0  0  0
   -2.5939    2.5957    9.1190 C   0  0  0  0  0  0  0  0  0  0  0  0
   -1.0739    0.4513    5.1927 N   0  0  0  0  0  0  0  0  0  0  0  0
   -0.5348    0.6785    4.0285 C   0  0  0  0  0  0  0  0  0  0  0  0
    0.3169   -0.1950    3.2221 N   0  0  0  0  0  0  0  0  0  0  0  0
    0.6377    0.4027    2.1637 N   0  0  0  0  0  0  0  0  0  0  0  0
    0.0977    1.6711    2.1447 N   0  0  0  0  0  0  0  0  0  0  0  0
   -0.5989    1.8507    3.3319 N   0  0  0  0  0  0  0  0  0  0  0  0
   -2.0400    3.6162    5.5825 H   0  0  0  0  0  0  0  0  0  0  0  0
   -0.6019    4.1633    2.3737 H   0  0  0  0  0  0  0  0  0  0  0  0
   -3.7765    2.8984    7.2072 H   0  0  0  0  0  0  0  0  0  0  0  0
   -0.7609    3.3921    8.1339 H   0  0  0  0  0  0  0  0  0  0  0  0
   -2.1236    4.6218    8.2817 H   0  0  0  0  0  0  0  0  0  0  0  0
   -3.3788    2.9991    9.7543 H   0  0  0  0  0  0  0  0  0  0  0  0
   -2.0058    1.8036    9.5819 H   0  0  0  0  0  0  0  0  0  0  0  0
   -0.2631    2.0272    1.2546 H   0  0  0  0  0  0  0  0  0  0  0  0
  1  2  2  3
  1 16  1  0
  2 14  1  0
  2  3  1  0
  3 15  1  0
  3  4  1  0
  4  5  2  3
  4  9  1  0
  5  6  1  0
  6  8  1  0
  6  7  1  0
  6 17  1  0
  7  8  1  0
  7 18  1  0
  7 19  1  0
  8 20  1  0
  8 21  1  0
  9 10  2  0
 10 14  1  0
 10 11  1  0
 11 12  2  0
 12 13  1  0
 13 14  1  0
 13 22  1  0
M  END
>  <i_m_ct_stereo_status>  (76) 
1

>  <s_m_source_file>  (76) 
/var/tmp/pbs.5076255.sched01/tmpgn4o3w3f/0whq8s7pj.sdf

>  <i_m_source_file_index>  (76) 
40

>  <i_lp_mmshare_version>  (76) 
48012

>  <i_f3d_flags>  (76) 
0

>  <s_epik_input>  (76) 
bjFuW25IXW4oYzEyKWMoPU5cW0hdKS9bbkhdL2MobjIpPU4vW0NIXTNbQ0gyXVtDSDJdMw==

>  <s_epik_cmdline>  (76) 
J2VwaWtfcHl0aG9uJywgJy1waHQnLCAnMi4wJywgJy1waCcsICc3LjAnLCAnLXRuJywgJzgnLCAnLW1hJywgJzIwMCcsICctaW1hZScsICc8aW5maWxlLm1hZT4nLCAnLW9tYWUnLCAnPG91dGZpbGUubWFlPic=

>  <r_lp_tautomer_probability>  (76) 
1

>  <r_epik_Ionization_Penalty>  (76) 
36.6595

>  <r_epik_Ionization_Penalty_Charging>  (76) 
36.6595

>  <r_epik_Ionization_Penalty_Neutral>  (76) 
1.00605e-08

>  <r_epik_State_Penalty>  (76) 
-0

>  <r_epik_Charging_Adjusted_Penalty>  (76) 
36.6595

>  <i_epik_Tot_Q>  (76) 
0

>  <i_epik_Tot_abs_Q>  (76) 
0

>  <s_lp_Force_Field>  (76) 
OPLS3e

>  <r_lp_Energy>  (76) 
16.5795

>  <b_lp_Chiralities_Consistent>  (76) 
1

>  <s_lp_Variant>  (76) 
24:0-3

>  <s_i_glide_gridfile>  (76) 
pfpi4k_grid

>  <i_i_glide_lignum>  (76) 
40

>  <i_i_glide_rotatable_bonds>  (76) 
1

>  <r_i_docking_score>  (76) 
-4.89277

>  <r_i_glide_ligand_efficiency>  (76) 
-0.349484

>  <r_i_glide_ligand_efficiency_sa>  (76) 
-0.842306

>  <r_i_glide_ligand_efficiency_ln>  (76) 
-1.34452

>  <r_i_glide_gscore>  (76) 
-4.89277

>  <r_i_glide_lipo>  (76) 
-0.16164

>  <r_i_glide_hbond>  (76) 
-0.230981

>  <r_i_glide_metal>  (76) 
-0

>  <r_i_glide_rewards>  (76) 
-2.09876

>  <r_i_glide_evdw>  (76) 
-19.9274

>  <r_i_glide_ecoul>  (76) 
-7.39957

>  <r_i_glide_erotb>  (76) 
0

>  <r_i_glide_esite>  (76) 
-0.295084

>  <r_i_glide_emodel>  (76) 
-37.5987

>  <r_i_glide_energy>  (76) 
-27.327

>  <r_i_glide_einternal>  (76) 
0.112699

>  <r_i_glide_intrahb_reward>  (76) 
-0

>  <i_i_glide_confnum>  (76) 
1

>  <i_i_glide_posenum>  (76) 
9

>  <r_i_glide_eff_state_penalty>  (76) 
0

>  <ligand_id>  (76) 
24

>  <original_smiles>  (76) 
N=c1[nH]c(=NC2CC2)nc2nn[nH]n12

>  <smiles>  (76) 
[H]N=c1n([H])c(=NC2([H])C([H])([H])C2([H])[H])nc2nnn([H])n12

$$$$
24:2:1
     RDKit          3D

 22 24  0  0  1  0  0  0  0  0999 V2000
   -1.3748    4.5181    3.6788 N   0  0  0  0  0  0  0  0  0  0  0  0
   -1.4382    3.4087    4.3111 C   0  0  0  0  0  0  0  0  0  0  0  0
   -1.8087    3.2949    5.6575 N   0  0  0  0  0  0  0  0  0  0  0  0
   -1.8564    2.0930    6.4244 C   0  0  0  0  0  0  0  0  0  0  0  0
   -2.2057    2.1041    7.6623 N   0  0  0  0  0  0  0  0  0  0  0  0
   -2.5310    3.3444    8.3423 C   0  0  0  0  0  0  0  0  0  0  0  0
   -2.7848    3.1306    9.8167 C   0  0  0  0  0  0  0  0  0  0  0  0
   -3.9448    3.3671    8.8805 C   0  0  0  0  0  0  0  0  0  0  0  0
   -1.4792    0.8900    5.7921 N   0  0  0  0  0  0  0  0  0  0  0  0
   -1.0905    1.0006    4.5496 C   0  0  0  0  0  0  0  0  0  0  0  0
   -0.4647    0.0137    3.6841 N   0  0  0  0  0  0  0  0  0  0  0  0
   -0.2113    0.5403    2.5654 N   0  0  0  0  0  0  0  0  0  0  0  0
   -0.6308    1.8363    2.5543 N   0  0  0  0  0  0  0  0  0  0  0  0
   -1.1310    2.1474    3.8087 N   0  0  0  0  0  0  0  0  0  0  0  0
   -2.0112    4.1435    6.1415 H   0  0  0  0  0  0  0  0  0  0  0  0
   -0.9933    4.3874    2.7362 H   0  0  0  0  0  0  0  0  0  0  0  0
   -1.9956    4.2493    8.0318 H   0  0  0  0  0  0  0  0  0  0  0  0
   -2.7224    2.1396   10.2680 H   0  0  0  0  0  0  0  0  0  0  0  0
   -2.5168    3.9413   10.4920 H   0  0  0  0  0  0  0  0  0  0  0  0
   -4.4155    4.3514    8.8863 H   0  0  0  0  0  0  0  0  0  0  0  0
   -4.6180    2.5513    8.6797 H   0  0  0  0  0  0  0  0  0  0  0  0
   -1.0895    2.1700    1.7068 H   0  0  0  0  0  0  0  0  0  0  0  0
  1  2  2  3
  1 16  1  0
  2 14  1  0
  2  3  1  0
  3 15  1  0
  3  4  1  0
  4  5  2  3
  4  9  1  0
  5  6  1  0
  6  8  1  0
  6  7  1  0
  6 17  1  0
  7  8  1  0
  7 18  1  0
  7 19  1  0
  8 20  1  0
  8 21  1  0
  9 10  2  0
 10 14  1  0
 10 11  1  0
 11 12  2  0
 12 13  1  0
 13 14  1  0
 13 22  1  0
M  END
>  <i_m_ct_stereo_status>  (77) 
1

>  <s_m_source_file>  (77) 
/var/tmp/pbs.5076255.sched01/tmpgn4o3w3f/0whq8s7pj.sdf

>  <i_m_source_file_index>  (77) 
40

>  <i_lp_mmshare_version>  (77) 
48012

>  <i_f3d_flags>  (77) 
0

>  <s_epik_input>  (77) 
bjFuW25IXW4oYzEyKWMoPU5cW0hdKS9bbkhdL2MobjIpPU4vW0NIXTNbQ0gyXVtDSDJdMw==

>  <s_epik_cmdline>  (77) 
J2VwaWtfcHl0aG9uJywgJy1waHQnLCAnMi4wJywgJy1waCcsICc3LjAnLCAnLXRuJywgJzgnLCAnLW1hJywgJzIwMCcsICctaW1hZScsICc8aW5maWxlLm1hZT4nLCAnLW9tYWUnLCAnPG91dGZpbGUubWFlPic=

>  <r_lp_tautomer_probability>  (77) 
1

>  <r_epik_Ionization_Penalty>  (77) 
36.6595

>  <r_epik_Ionization_Penalty_Charging>  (77) 
36.6595

>  <r_epik_Ionization_Penalty_Neutral>  (77) 
1.00605e-08

>  <r_epik_State_Penalty>  (77) 
-0

>  <r_epik_Charging_Adjusted_Penalty>  (77) 
36.6595

>  <i_epik_Tot_Q>  (77) 
0

>  <i_epik_Tot_abs_Q>  (77) 
0

>  <s_lp_Force_Field>  (77) 
OPLS3e

>  <r_lp_Energy>  (77) 
16.5795

>  <b_lp_Chiralities_Consistent>  (77) 
1

>  <s_lp_Variant>  (77) 
24:0-3

>  <s_i_glide_gridfile>  (77) 
pfpi4k_grid

>  <i_i_glide_lignum>  (77) 
40

>  <i_i_glide_rotatable_bonds>  (77) 
1

>  <r_i_docking_score>  (77) 
-4.60965

>  <r_i_glide_ligand_efficiency>  (77) 
-0.329261

>  <r_i_glide_ligand_efficiency_sa>  (77) 
-0.793566

>  <r_i_glide_ligand_efficiency_ln>  (77) 
-1.26672

>  <r_i_glide_gscore>  (77) 
-4.60965

>  <r_i_glide_lipo>  (77) 
-0.117865

>  <r_i_glide_hbond>  (77) 
-0.204333

>  <r_i_glide_metal>  (77) 
-0

>  <r_i_glide_rewards>  (77) 
-2.09876

>  <r_i_glide_evdw>  (77) 
-21.5881

>  <r_i_glide_ecoul>  (77) 
-5.77951

>  <r_i_glide_erotb>  (77) 
0

>  <r_i_glide_esite>  (77) 
-0.242358

>  <r_i_glide_emodel>  (77) 
-36.7679

>  <r_i_glide_energy>  (77) 
-27.3676

>  <r_i_glide_einternal>  (77) 
0.551803

>  <r_i_glide_intrahb_reward>  (77) 
-0

>  <i_i_glide_confnum>  (77) 
1

>  <i_i_glide_posenum>  (77) 
1

>  <r_i_glide_eff_state_penalty>  (77) 
0

>  <ligand_id>  (77) 
24

>  <original_smiles>  (77) 
N=c1[nH]c(=NC2CC2)nc2nn[nH]n12

>  <smiles>  (77) 
[H]N=c1n([H])c(=NC2([H])C([H])([H])C2([H])[H])nc2nnn([H])n12

$$$$
24:2:2
     RDKit          3D

 22 24  0  0  1  0  0  0  0  0999 V2000
    0.5681    4.6854    4.8935 N   0  0  0  0  0  0  0  0  0  0  0  0
   -0.1604    3.6525    5.0977 C   0  0  0  0  0  0  0  0  0  0  0  0
   -0.7413    3.3411    6.3321 N   0  0  0  0  0  0  0  0  0  0  0  0
   -1.5210    2.1843    6.6061 C   0  0  0  0  0  0  0  0  0  0  0  0
   -2.0436    1.9840    7.7746 N   0  0  0  0  0  0  0  0  0  0  0  0
   -1.7826    2.9140    8.8564 C   0  0  0  0  0  0  0  0  0  0  0  0
   -2.9411    2.9831    9.8275 C   0  0  0  0  0  0  0  0  0  0  0  0
   -2.6860    4.1239    8.8685 C   0  0  0  0  0  0  0  0  0  0  0  0
   -1.6857    1.2214    5.5894 N   0  0  0  0  0  0  0  0  0  0  0  0
   -1.1104    1.4994    4.4497 C   0  0  0  0  0  0  0  0  0  0  0  0
   -0.9413    0.6607    3.2795 N   0  0  0  0  0  0  0  0  0  0  0  0
   -0.3116    1.3063    2.4016 N   0  0  0  0  0  0  0  0  0  0  0  0
    0.0431    2.5439    2.8814 N   0  0  0  0  0  0  0  0  0  0  0  0
   -0.4567    2.6688    4.1608 N   0  0  0  0  0  0  0  0  0  0  0  0
   -0.5755    3.9937    7.0801 H   0  0  0  0  0  0  0  0  0  0  0  0
    0.9354    4.6982    3.9486 H   0  0  0  0  0  0  0  0  0  0  0  0
   -0.7602    2.9176    9.2442 H   0  0  0  0  0  0  0  0  0  0  0  0
   -3.8387    2.3960    9.6511 H   0  0  0  0  0  0  0  0  0  0  0  0
   -2.7193    3.1516   10.8808 H   0  0  0  0  0  0  0  0  0  0  0  0
   -2.2606    5.0435    9.2638 H   0  0  0  0  0  0  0  0  0  0  0  0
   -3.3833    4.2463    8.0396 H   0  0  0  0  0  0  0  0  0  0  0  0
   -0.0565    3.3184    2.2064 H   0  0  0  0  0  0  0  0  0  0  0  0
  1  2  2  3
  1 16  1  0
  2 14  1  0
  2  3  1  0
  3 15  1  0
  3  4  1  0
  4  5  2  3
  4  9  1  0
  5  6  1  0
  6  8  1  0
  6  7  1  0
  6 17  1  0
  7  8  1  0
  7 18  1  0
  7 19  1  0
  8 20  1  0
  8 21  1  0
  9 10  2  0
 10 14  1  0
 10 11  1  0
 11 12  2  0
 12 13  1  0
 13 14  1  0
 13 22  1  0
M  END
>  <i_m_ct_stereo_status>  (78) 
1

>  <s_m_source_file>  (78) 
/var/tmp/pbs.5076255.sched01/tmpgn4o3w3f/0whq8s7pj.sdf

>  <i_m_source_file_index>  (78) 
40

>  <i_lp_mmshare_version>  (78) 
48012

>  <i_f3d_flags>  (78) 
0

>  <s_epik_input>  (78) 
bjFuW25IXW4oYzEyKWMoPU5cW0hdKS9bbkhdL2MobjIpPU4vW0NIXTNbQ0gyXVtDSDJdMw==

>  <s_epik_cmdline>  (78) 
J2VwaWtfcHl0aG9uJywgJy1waHQnLCAnMi4wJywgJy1waCcsICc3LjAnLCAnLXRuJywgJzgnLCAnLW1hJywgJzIwMCcsICctaW1hZScsICc8aW5maWxlLm1hZT4nLCAnLW9tYWUnLCAnPG91dGZpbGUubWFlPic=

>  <r_lp_tautomer_probability>  (78) 
1

>  <r_epik_Ionization_Penalty>  (78) 
36.6595

>  <r_epik_Ionization_Penalty_Charging>  (78) 
36.6595

>  <r_epik_Ionization_Penalty_Neutral>  (78) 
1.00605e-08

>  <r_epik_State_Penalty>  (78) 
-0

>  <r_epik_Charging_Adjusted_Penalty>  (78) 
36.6595

>  <i_epik_Tot_Q>  (78) 
0

>  <i_epik_Tot_abs_Q>  (78) 
0

>  <s_lp_Force_Field>  (78) 
OPLS3e

>  <r_lp_Energy>  (78) 
16.5795

>  <b_lp_Chiralities_Consistent>  (78) 
1

>  <s_lp_Variant>  (78) 
24:0-3

>  <s_i_glide_gridfile>  (78) 
pfpi4k_grid

>  <i_i_glide_lignum>  (78) 
40

>  <i_i_glide_rotatable_bonds>  (78) 
1

>  <r_i_docking_score>  (78) 
-4.36972

>  <r_i_glide_ligand_efficiency>  (78) 
-0.312123

>  <r_i_glide_ligand_efficiency_sa>  (78) 
-0.752261

>  <r_i_glide_ligand_efficiency_ln>  (78) 
-1.20078

>  <r_i_glide_gscore>  (78) 
-4.36972

>  <r_i_glide_lipo>  (78) 
-0.0408682

>  <r_i_glide_hbond>  (78) 
-0.16

>  <r_i_glide_metal>  (78) 
-0

>  <r_i_glide_rewards>  (78) 
-2.09876

>  <r_i_glide_evdw>  (78) 
-18.334

>  <r_i_glide_ecoul>  (78) 
-5.89425

>  <r_i_glide_erotb>  (78) 
0

>  <r_i_glide_esite>  (78) 
-0.269255

>  <r_i_glide_emodel>  (78) 
-33.4313

>  <r_i_glide_energy>  (78) 
-24.2283

>  <r_i_glide_einternal>  (78) 
0.0459452

>  <r_i_glide_intrahb_reward>  (78) 
-0

>  <i_i_glide_confnum>  (78) 
2

>  <i_i_glide_posenum>  (78) 
38

>  <r_i_glide_eff_state_penalty>  (78) 
0

>  <ligand_id>  (78) 
24

>  <original_smiles>  (78) 
N=c1[nH]c(=NC2CC2)nc2nn[nH]n12

>  <smiles>  (78) 
[H]N=c1n([H])c(=NC2([H])C([H])([H])C2([H])[H])nc2nnn([H])n12

$$$$
24:3:0
     RDKit          3D

 22 24  0  0  1  0  0  0  0  0999 V2000
    2.6096    3.5112    2.9083 N   0  0  0  0  0  0  0  0  0  0  0  0
    2.0805    2.3540    2.7362 C   0  0  0  0  0  0  0  0  0  0  0  0
    2.8008    1.1996    2.4144 N   0  0  0  0  0  0  0  0  0  0  0  0
    2.2592   -0.1058    2.3268 C   0  0  0  0  0  0  0  0  0  0  0  0
    3.0164   -1.1190    2.0498 N   0  0  0  0  0  0  0  0  0  0  0  0
    4.4043   -0.9021    1.6884 C   0  0  0  0  0  0  0  0  0  0  0  0
    5.2282   -2.1288    2.0208 C   0  0  0  0  0  0  0  0  0  0  0  0
    5.3713   -0.8760    2.8538 C   0  0  0  0  0  0  0  0  0  0  0  0
    0.8696   -0.2935    2.5949 N   0  0  0  0  0  0  0  0  0  0  0  0
    0.2072    0.7938    2.8622 C   0  0  0  0  0  0  0  0  0  0  0  0
   -1.1905    0.9650    3.2496 N   0  0  0  0  0  0  0  0  0  0  0  0
   -1.4230    2.1970    3.3686 N   0  0  0  0  0  0  0  0  0  0  0  0
   -0.2693    2.9393    3.2196 N   0  0  0  0  0  0  0  0  0  0  0  0
    0.7290    2.0571    2.8879 N   0  0  0  0  0  0  0  0  0  0  0  0
    3.8014    1.2956    2.2783 H   0  0  0  0  0  0  0  0  0  0  0  0
    3.6106    3.4975    2.7318 H   0  0  0  0  0  0  0  0  0  0  0  0
    4.5582   -0.4111    0.7290 H   0  0  0  0  0  0  0  0  0  0  0  0
    4.7643   -2.9741    2.5231 H   0  0  0  0  0  0  0  0  0  0  0  0
    6.0566   -2.3929    1.3683 H   0  0  0  0  0  0  0  0  0  0  0  0
    6.2623   -0.2605    2.7266 H   0  0  0  0  0  0  0  0  0  0  0  0
    4.9616   -0.9074    3.8611 H   0  0  0  0  0  0  0  0  0  0  0  0
   -0.3259    3.7751    2.6124 H   0  0  0  0  0  0  0  0  0  0  0  0
  1  2  2  3
  1 16  1  0
  2 14  1  0
  2  3  1  0
  3 15  1  0
  3  4  1  0
  4  5  2  3
  4  9  1  0
  5  6  1  0
  6  8  1  0
  6  7  1  0
  6 17  1  0
  7  8  1  0
  7 18  1  0
  7 19  1  0
  8 20  1  0
  8 21  1  0
  9 10  2  0
 10 14  1  0
 10 11  1  0
 11 12  2  0
 12 13  1  0
 13 14  1  0
 13 22  1  0
M  END
>  <i_m_ct_stereo_status>  (79) 
1

>  <s_m_source_file>  (79) 
/var/tmp/pbs.5076255.sched01/tmpgn4o3w3f/0whq8s7pj.sdf

>  <i_m_source_file_index>  (79) 
41

>  <i_lp_mmshare_version>  (79) 
48012

>  <i_f3d_flags>  (79) 
0

>  <s_epik_input>  (79) 
bjFuW25IXW4oYzEyKWMoPU5cW0hdKS9bbkhdL2MobjIpPU4vW0NIXTNbQ0gyXVtDSDJdMw==

>  <s_epik_cmdline>  (79) 
J2VwaWtfcHl0aG9uJywgJy1waHQnLCAnMi4wJywgJy1waCcsICc3LjAnLCAnLXRuJywgJzgnLCAnLW1hJywgJzIwMCcsICctaW1hZScsICc8aW5maWxlLm1hZT4nLCAnLW9tYWUnLCAnPG91dGZpbGUubWFlPic=

>  <r_lp_tautomer_probability>  (79) 
1

>  <r_epik_Ionization_Penalty>  (79) 
36.6595

>  <r_epik_Ionization_Penalty_Charging>  (79) 
36.6595

>  <r_epik_Ionization_Penalty_Neutral>  (79) 
1.00605e-08

>  <r_epik_State_Penalty>  (79) 
-0

>  <r_epik_Charging_Adjusted_Penalty>  (79) 
36.6595

>  <i_epik_Tot_Q>  (79) 
0

>  <i_epik_Tot_abs_Q>  (79) 
0

>  <s_lp_Force_Field>  (79) 
OPLS3e

>  <r_lp_Energy>  (79) 
15.869

>  <b_lp_Chiralities_Consistent>  (79) 
1

>  <s_lp_Variant>  (79) 
24:0-4

>  <s_i_glide_gridfile>  (79) 
pfpi4k_grid

>  <i_i_glide_lignum>  (79) 
41

>  <i_i_glide_rotatable_bonds>  (79) 
1

>  <r_i_docking_score>  (79) 
-4.71457

>  <r_i_glide_ligand_efficiency>  (79) 
-0.336755

>  <r_i_glide_ligand_efficiency_sa>  (79) 
-0.811627

>  <r_i_glide_ligand_efficiency_ln>  (79) 
-1.29555

>  <r_i_glide_gscore>  (79) 
-4.71457

>  <r_i_glide_lipo>  (79) 
-0.237414

>  <r_i_glide_hbond>  (79) 
-0.540468

>  <r_i_glide_metal>  (79) 
-0

>  <r_i_glide_rewards>  (79) 
-2.09876

>  <r_i_glide_evdw>  (79) 
-18.8173

>  <r_i_glide_ecoul>  (79) 
-3.88557

>  <r_i_glide_erotb>  (79) 
0

>  <r_i_glide_esite>  (79) 
-0.314217

>  <r_i_glide_emodel>  (79) 
-30.2222

>  <r_i_glide_energy>  (79) 
-22.7029

>  <r_i_glide_einternal>  (79) 
0.00888207

>  <r_i_glide_intrahb_reward>  (79) 
-0

>  <i_i_glide_confnum>  (79) 
1

>  <i_i_glide_posenum>  (79) 
3

>  <r_i_glide_eff_state_penalty>  (79) 
0

>  <ligand_id>  (79) 
24

>  <original_smiles>  (79) 
N=c1[nH]c(=NC2CC2)nc2nn[nH]n12

>  <smiles>  (79) 
[H]N=c1n([H])c(=NC2([H])C([H])([H])C2([H])[H])nc2nnn([H])n12

$$$$
24:3:1
     RDKit          3D

 22 24  0  0  1  0  0  0  0  0999 V2000
    5.1313   -0.3000    0.5177 N   0  0  0  0  0  0  0  0  0  0  0  0
    4.8277   -1.1553   -0.3795 C   0  0  0  0  0  0  0  0  0  0  0  0
    4.4542   -0.8421   -1.6912 N   0  0  0  0  0  0  0  0  0  0  0  0
    4.1583   -1.7564   -2.7222 C   0  0  0  0  0  0  0  0  0  0  0  0
    3.7702   -1.3486   -3.8876 N   0  0  0  0  0  0  0  0  0  0  0  0
    3.5295    0.0587   -4.1547 C   0  0  0  0  0  0  0  0  0  0  0  0
    2.2160    0.2397   -4.8663 C   0  0  0  0  0  0  0  0  0  0  0  0
    3.4840    0.3414   -5.6277 C   0  0  0  0  0  0  0  0  0  0  0  0
    4.3341   -3.1424   -2.4613 N   0  0  0  0  0  0  0  0  0  0  0  0
    4.6836   -3.4427   -1.2400 C   0  0  0  0  0  0  0  0  0  0  0  0
    5.0540   -4.7247   -0.6601 N   0  0  0  0  0  0  0  0  0  0  0  0
    5.3695   -4.5632    0.5507 N   0  0  0  0  0  0  0  0  0  0  0  0
    5.2627   -3.2378    0.9029 N   0  0  0  0  0  0  0  0  0  0  0  0
    4.8438   -2.5382   -0.2165 N   0  0  0  0  0  0  0  0  0  0  0  0
    4.3459    0.1355   -1.9111 H   0  0  0  0  0  0  0  0  0  0  0  0
    5.0919    0.6615    0.1665 H   0  0  0  0  0  0  0  0  0  0  0  0
    3.9231    0.8231   -3.4747 H   0  0  0  0  0  0  0  0  0  0  0  0
    1.5945   -0.6257   -5.1219 H   0  0  0  0  0  0  0  0  0  0  0  0
    1.6652    1.1657   -4.7170 H   0  0  0  0  0  0  0  0  0  0  0  0
    3.8294    1.3288   -5.9115 H   0  0  0  0  0  0  0  0  0  0  0  0
    3.6978   -0.4506   -6.3488 H   0  0  0  0  0  0  0  0  0  0  0  0
    4.8759   -3.0113    1.8195 H   0  0  0  0  0  0  0  0  0  0  0  0
  1  2  2  3
  1 16  1  0
  2 14  1  0
  2  3  1  0
  3 15  1  0
  3  4  1  0
  4  5  2  3
  4  9  1  0
  5  6  1  0
  6  8  1  0
  6  7  1  0
  6 17  1  0
  7  8  1  0
  7 18  1  0
  7 19  1  0
  8 20  1  0
  8 21  1  0
  9 10  2  0
 10 14  1  0
 10 11  1  0
 11 12  2  0
 12 13  1  0
 13 14  1  0
 13 22  1  0
M  END
>  <i_m_ct_stereo_status>  (80) 
1

>  <s_m_source_file>  (80) 
/var/tmp/pbs.5076255.sched01/tmpgn4o3w3f/0whq8s7pj.sdf

>  <i_m_source_file_index>  (80) 
41

>  <i_lp_mmshare_version>  (80) 
48012

>  <i_f3d_flags>  (80) 
0

>  <s_epik_input>  (80) 
bjFuW25IXW4oYzEyKWMoPU5cW0hdKS9bbkhdL2MobjIpPU4vW0NIXTNbQ0gyXVtDSDJdMw==

>  <s_epik_cmdline>  (80) 
J2VwaWtfcHl0aG9uJywgJy1waHQnLCAnMi4wJywgJy1waCcsICc3LjAnLCAnLXRuJywgJzgnLCAnLW1hJywgJzIwMCcsICctaW1hZScsICc8aW5maWxlLm1hZT4nLCAnLW9tYWUnLCAnPG91dGZpbGUubWFlPic=

>  <r_lp_tautomer_probability>  (80) 
1

>  <r_epik_Ionization_Penalty>  (80) 
36.6595

>  <r_epik_Ionization_Penalty_Charging>  (80) 
36.6595

>  <r_epik_Ionization_Penalty_Neutral>  (80) 
1.00605e-08

>  <r_epik_State_Penalty>  (80) 
-0

>  <r_epik_Charging_Adjusted_Penalty>  (80) 
36.6595

>  <i_epik_Tot_Q>  (80) 
0

>  <i_epik_Tot_abs_Q>  (80) 
0

>  <s_lp_Force_Field>  (80) 
OPLS3e

>  <r_lp_Energy>  (80) 
15.869

>  <b_lp_Chiralities_Consistent>  (80) 
1

>  <s_lp_Variant>  (80) 
24:0-4

>  <s_i_glide_gridfile>  (80) 
pfpi4k_grid

>  <i_i_glide_lignum>  (80) 
41

>  <i_i_glide_rotatable_bonds>  (80) 
1

>  <r_i_docking_score>  (80) 
-4.57578

>  <r_i_glide_ligand_efficiency>  (80) 
-0.326841

>  <r_i_glide_ligand_efficiency_sa>  (80) 
-0.787734

>  <r_i_glide_ligand_efficiency_ln>  (80) 
-1.25741

>  <r_i_glide_gscore>  (80) 
-4.57578

>  <r_i_glide_lipo>  (80) 
-0.294789

>  <r_i_glide_hbond>  (80) 
-0.373537

>  <r_i_glide_metal>  (80) 
-0

>  <r_i_glide_rewards>  (80) 
-2.17825

>  <r_i_glide_evdw>  (80) 
-22.6565

>  <r_i_glide_ecoul>  (80) 
-3.48999

>  <r_i_glide_erotb>  (80) 
0

>  <r_i_glide_esite>  (80) 
-0.0728809

>  <r_i_glide_emodel>  (80) 
-32.9329

>  <r_i_glide_energy>  (80) 
-26.1465

>  <r_i_glide_einternal>  (80) 
0.96383

>  <r_i_glide_intrahb_reward>  (80) 
-0

>  <i_i_glide_confnum>  (80) 
2

>  <i_i_glide_posenum>  (80) 
4

>  <r_i_glide_eff_state_penalty>  (80) 
0

>  <ligand_id>  (80) 
24

>  <original_smiles>  (80) 
N=c1[nH]c(=NC2CC2)nc2nn[nH]n12

>  <smiles>  (80) 
[H]N=c1n([H])c(=NC2([H])C([H])([H])C2([H])[H])nc2nnn([H])n12

$$$$
24:3:2
     RDKit          3D

 22 24  0  0  1  0  0  0  0  0999 V2000
   -2.9538    3.6590    2.8848 N   0  0  0  0  0  0  0  0  0  0  0  0
   -2.2203    3.0415    3.7423 C   0  0  0  0  0  0  0  0  0  0  0  0
   -2.5073    2.9340    5.1112 N   0  0  0  0  0  0  0  0  0  0  0  0
   -1.7754    2.1480    6.0440 C   0  0  0  0  0  0  0  0  0  0  0  0
   -2.0890    2.1158    7.2991 N   0  0  0  0  0  0  0  0  0  0  0  0
   -3.1710    2.9401    7.8042 C   0  0  0  0  0  0  0  0  0  0  0  0
   -2.6752    4.1521    8.5523 C   0  0  0  0  0  0  0  0  0  0  0  0
   -3.2073    2.9610    9.3166 C   0  0  0  0  0  0  0  0  0  0  0  0
   -0.6947    1.3674    5.5728 N   0  0  0  0  0  0  0  0  0  0  0  0
   -0.4266    1.4879    4.3019 C   0  0  0  0  0  0  0  0  0  0  0  0
    0.5117    0.7237    3.4938 N   0  0  0  0  0  0  0  0  0  0  0  0
    0.4380    1.1240    2.3059 N   0  0  0  0  0  0  0  0  0  0  0  0
   -0.5356    2.0853    2.1827 N   0  0  0  0  0  0  0  0  0  0  0  0
   -1.0616    2.3303    3.4330 N   0  0  0  0  0  0  0  0  0  0  0  0
   -3.3386    3.3749    5.4724 H   0  0  0  0  0  0  0  0  0  0  0  0
   -3.7932    4.0461    3.2903 H   0  0  0  0  0  0  0  0  0  0  0  0
   -4.1082    2.9199    7.2511 H   0  0  0  0  0  0  0  0  0  0  0  0
   -1.6023    4.3282    8.6076 H   0  0  0  0  0  0  0  0  0  0  0  0
   -3.2952    5.0449    8.5010 H   0  0  0  0  0  0  0  0  0  0  0  0
   -4.1787    3.0676    9.7951 H   0  0  0  0  0  0  0  0  0  0  0  0
   -2.4808    2.3834    9.8860 H   0  0  0  0  0  0  0  0  0  0  0  0
   -0.3005    2.8932    1.5879 H   0  0  0  0  0  0  0  0  0  0  0  0
  1  2  2  3
  1 16  1  0
  2 14  1  0
  2  3  1  0
  3 15  1  0
  3  4  1  0
  4  5  2  3
  4  9  1  0
  5  6  1  0
  6  8  1  0
  6  7  1  0
  6 17  1  0
  7  8  1  0
  7 18  1  0
  7 19  1  0
  8 20  1  0
  8 21  1  0
  9 10  2  0
 10 14  1  0
 10 11  1  0
 11 12  2  0
 12 13  1  0
 13 14  1  0
 13 22  1  0
M  END
>  <i_m_ct_stereo_status>  (81) 
1

>  <s_m_source_file>  (81) 
/var/tmp/pbs.5076255.sched01/tmpgn4o3w3f/0whq8s7pj.sdf

>  <i_m_source_file_index>  (81) 
41

>  <i_lp_mmshare_version>  (81) 
48012

>  <i_f3d_flags>  (81) 
0

>  <s_epik_input>  (81) 
bjFuW25IXW4oYzEyKWMoPU5cW0hdKS9bbkhdL2MobjIpPU4vW0NIXTNbQ0gyXVtDSDJdMw==

>  <s_epik_cmdline>  (81) 
J2VwaWtfcHl0aG9uJywgJy1waHQnLCAnMi4wJywgJy1waCcsICc3LjAnLCAnLXRuJywgJzgnLCAnLW1hJywgJzIwMCcsICctaW1hZScsICc8aW5maWxlLm1hZT4nLCAnLW9tYWUnLCAnPG91dGZpbGUubWFlPic=

>  <r_lp_tautomer_probability>  (81) 
1

>  <r_epik_Ionization_Penalty>  (81) 
36.6595

>  <r_epik_Ionization_Penalty_Charging>  (81) 
36.6595

>  <r_epik_Ionization_Penalty_Neutral>  (81) 
1.00605e-08

>  <r_epik_State_Penalty>  (81) 
-0

>  <r_epik_Charging_Adjusted_Penalty>  (81) 
36.6595

>  <i_epik_Tot_Q>  (81) 
0

>  <i_epik_Tot_abs_Q>  (81) 
0

>  <s_lp_Force_Field>  (81) 
OPLS3e

>  <r_lp_Energy>  (81) 
15.869

>  <b_lp_Chiralities_Consistent>  (81) 
1

>  <s_lp_Variant>  (81) 
24:0-4

>  <s_i_glide_gridfile>  (81) 
pfpi4k_grid

>  <i_i_glide_lignum>  (81) 
41

>  <i_i_glide_rotatable_bonds>  (81) 
1

>  <r_i_docking_score>  (81) 
-4.11297

>  <r_i_glide_ligand_efficiency>  (81) 
-0.293783

>  <r_i_glide_ligand_efficiency_sa>  (81) 
-0.708059

>  <r_i_glide_ligand_efficiency_ln>  (81) 
-1.13023

>  <r_i_glide_gscore>  (81) 
-4.11297

>  <r_i_glide_lipo>  (81) 
-0.180897

>  <r_i_glide_hbond>  (81) 
-0.16

>  <r_i_glide_metal>  (81) 
-0

>  <r_i_glide_rewards>  (81) 
-2.09876

>  <r_i_glide_evdw>  (81) 
-20.8735

>  <r_i_glide_ecoul>  (81) 
-2.31674

>  <r_i_glide_erotb>  (81) 
0

>  <r_i_glide_esite>  (81) 
-0.282119

>  <r_i_glide_emodel>  (81) 
-29.408

>  <r_i_glide_energy>  (81) 
-23.1902

>  <r_i_glide_einternal>  (81) 
0.137198

>  <r_i_glide_intrahb_reward>  (81) 
-0

>  <i_i_glide_confnum>  (81) 
1

>  <i_i_glide_posenum>  (81) 
9

>  <r_i_glide_eff_state_penalty>  (81) 
0

>  <ligand_id>  (81) 
24

>  <original_smiles>  (81) 
N=c1[nH]c(=NC2CC2)nc2nn[nH]n12

>  <smiles>  (81) 
[H]N=c1n([H])c(=NC2([H])C([H])([H])C2([H])[H])nc2nnn([H])n12

$$$$
25:0:0
     RDKit          3D

 45 48  0  0  1  0  0  0  0  0999 V2000
    5.3614   -0.4298    2.9630 C   0  0  0  0  0  0  0  0  0  0  0  0
    4.9221   -0.9374    1.5721 C   0  0  2  0  0  0  0  0  0  0  0  0
    3.5790   -1.6838    1.6013 C   0  0  0  0  0  0  0  0  0  0  0  0
    3.6461   -3.1968    1.1736 C   0  0  1  0  0  0  0  0  0  0  0  0
    4.8569   -3.7286    0.6633 O   0  0  0  0  0  0  0  0  0  0  0  0
    5.9220   -3.2554    1.3795 C   0  0  2  0  0  0  0  0  0  0  0  0
    7.1574   -4.0912    1.0147 C   0  0  0  0  0  0  0  0  0  0  0  0
    5.6321   -3.3794    2.7783 O   0  0  0  0  0  0  0  0  0  0  0  0
    4.6150   -4.5298    2.9780 O   0  0  0  0  0  0  0  0  0  0  0  0
    3.3835   -4.2293    2.2864 C   0  0  1  0  0  0  0  0  0  0  0  0
    2.2497   -3.8995    3.2748 C   0  0  0  0  0  0  0  0  0  0  0  0
    3.0067   -5.4737    1.4721 C   0  0  0  0  0  0  0  0  0  0  0  0
    2.4145   -4.9665    0.1551 C   0  0  0  0  0  0  0  0  0  0  0  0
    2.7799   -3.4818   -0.0390 C   0  0  2  0  0  0  0  0  0  0  0  0
    3.5060   -3.0998   -1.3886 C   0  0  1  0  0  0  0  0  0  0  0  0
    2.4854   -3.0561   -2.5369 C   0  0  0  0  0  0  0  0  0  0  0  0
    4.3414   -1.7669   -1.3723 C   0  0  0  0  0  0  0  0  0  0  0  0
    5.7710   -1.7165   -0.7095 C   0  0  0  0  0  0  0  0  0  0  0  0
    5.9696   -1.8001    0.8536 C   0  0  1  0  0  0  0  0  0  0  0  0
    5.4409   -1.2154    3.7096 H   0  0  0  0  0  0  0  0  0  0  0  0
    4.6570    0.3040    3.3517 H   0  0  0  0  0  0  0  0  0  0  0  0
    6.3327    0.0564    2.9090 H   0  0  0  0  0  0  0  0  0  0  0  0
    4.7854   -0.0345    0.9797 H   0  0  0  0  0  0  0  0  0  0  0  0
    3.1320   -1.5709    2.5842 H   0  0  0  0  0  0  0  0  0  0  0  0
    2.8774   -1.1475    0.9572 H   0  0  0  0  0  0  0  0  0  0  0  0
    7.0429   -5.1323    1.3165 H   0  0  0  0  0  0  0  0  0  0  0  0
    8.0605   -3.7087    1.4927 H   0  0  0  0  0  0  0  0  0  0  0  0
    7.3422   -4.0909   -0.0582 H   0  0  0  0  0  0  0  0  0  0  0  0
    1.3422   -3.6074    2.7481 H   0  0  0  0  0  0  0  0  0  0  0  0
    2.5061   -3.0981    3.9633 H   0  0  0  0  0  0  0  0  0  0  0  0
    1.9932   -4.7635    3.8908 H   0  0  0  0  0  0  0  0  0  0  0  0
    3.9193   -6.0397    1.2459 H   0  0  0  0  0  0  0  0  0  0  0  0
    2.3458   -6.1666    1.9994 H   0  0  0  0  0  0  0  0  0  0  0  0
    2.8325   -5.5878   -0.6583 H   0  0  0  0  0  0  0  0  0  0  0  0
    1.3479   -5.1234    0.1199 H   0  0  0  0  0  0  0  0  0  0  0  0
    1.8541   -2.9089    0.0529 H   0  0  0  0  0  0  0  0  0  0  0  0
    4.2004   -3.9014   -1.6474 H   0  0  0  0  0  0  0  0  0  0  0  0
    1.7737   -2.2551   -2.3841 H   0  0  0  0  0  0  0  0  0  0  0  0
    1.9030   -3.9789   -2.6077 H   0  0  0  0  0  0  0  0  0  0  0  0
    2.9589   -2.8926   -3.5017 H   0  0  0  0  0  0  0  0  0  0  0  0
    4.5254   -1.5137   -2.4145 H   0  0  0  0  0  0  0  0  0  0  0  0
    3.7261   -0.9379   -1.0262 H   0  0  0  0  0  0  0  0  0  0  0  0
    6.4129   -2.4423   -1.2064 H   0  0  0  0  0  0  0  0  0  0  0  0
    6.1748   -0.7467   -0.9880 H   0  0  0  0  0  0  0  0  0  0  0  0
    6.9542   -1.3911    1.0898 H   0  0  0  0  0  0  0  0  0  0  0  0
  1  2  1  0
  1 20  1  0
  1 21  1  0
  1 22  1  0
  2 19  1  0
  2  3  1  0
  2 23  1  6
  4  3  1  1
  3 24  1  0
  3 25  1  0
  4 10  1  0
  4 14  1  0
  4  5  1  0
  5  6  1  0
  6 19  1  0
  6  7  1  1
  6  8  1  0
  7 26  1  0
  7 27  1  0
  7 28  1  0
  8  9  1  0
  9 10  1  0
 10 11  1  1
 10 12  1  0
 11 29  1  0
 11 30  1  0
 11 31  1  0
 12 13  1  0
 12 32  1  0
 12 33  1  0
 13 14  1  0
 13 34  1  0
 13 35  1  0
 14 15  1  0
 14 36  1  1
 15 16  1  0
 15 17  1  0
 15 37  1  6
 16 38  1  0
 16 39  1  0
 16 40  1  0
 17 18  1  0
 17 41  1  0
 17 42  1  0
 18 19  1  0
 18 43  1  0
 18 44  1  0
 19 45  1  6
M  END
>  <i_m_ct_stereo_status>  (82) 
1

>  <s_m_source_file>  (82) 
/var/tmp/pbs.5076255.sched01/tmpgn4o3w3f/0whq8s7pj.sdf

>  <i_m_source_file_index>  (82) 
42

>  <i_lp_mmshare_version>  (82) 
48012

>  <i_f3d_flags>  (82) 
0

>  <s_epik_input>  (82) 
W0NAXTEyM1tDQF00KFtDSDNdKU9PW0NAXShPMikoW0NIM10pW0NASF0oW0NASF0oW0NIM10pW0NIMl0xKVtDSDJdW0NIMl1bQ0BIXShbQ0gzXSlbQ0BIXTNbQ0gyXVtDSDJdNA==

>  <s_epik_cmdline>  (82) 
J2VwaWtfcHl0aG9uJywgJy1waHQnLCAnMi4wJywgJy1waCcsICc3LjAnLCAnLXRuJywgJzgnLCAnLW1hJywgJzIwMCcsICctaW1hZScsICc8aW5maWxlLm1hZT4nLCAnLW9tYWUnLCAnPG91dGZpbGUubWFlPic=

>  <r_lp_tautomer_probability>  (82) 
1

>  <r_epik_Ionization_Penalty>  (82) 
5.23602e-14

>  <r_epik_Ionization_Penalty_Charging>  (82) 
0

>  <r_epik_Ionization_Penalty_Neutral>  (82) 
5.23602e-14

>  <r_epik_State_Penalty>  (82) 
-0

>  <r_epik_Charging_Adjusted_Penalty>  (82) 
0

>  <i_epik_Tot_Q>  (82) 
0

>  <i_epik_Tot_abs_Q>  (82) 
0

>  <s_lp_Force_Field>  (82) 
OPLS3e

>  <r_lp_Energy>  (82) 
60.4774

>  <b_lp_Chiralities_Consistent>  (82) 
1

>  <s_lp_Variant>  (82) 
25:0-1

>  <s_i_glide_gridfile>  (82) 
pfpi4k_grid

>  <i_i_glide_lignum>  (82) 
42

>  <i_i_glide_rotatable_bonds>  (82) 
0

>  <r_i_docking_score>  (82) 
-3.21092

>  <r_i_glide_ligand_efficiency>  (82) 
-0.168996

>  <r_i_glide_ligand_efficiency_sa>  (82) 
-0.450949

>  <r_i_glide_ligand_efficiency_ln>  (82) 
-0.814038

>  <r_i_glide_gscore>  (82) 
-3.21092

>  <r_i_glide_lipo>  (82) 
-0.507789

>  <r_i_glide_hbond>  (82) 
0

>  <r_i_glide_metal>  (82) 
-0

>  <r_i_glide_rewards>  (82) 
-1.71012

>  <r_i_glide_evdw>  (82) 
-18.4114

>  <r_i_glide_ecoul>  (82) 
-0.482946

>  <r_i_glide_erotb>  (82) 
0

>  <r_i_glide_esite>  (82) 
0

>  <r_i_glide_emodel>  (82) 
-21.8643

>  <r_i_glide_energy>  (82) 
-18.8944

>  <r_i_glide_einternal>  (82) 
0

>  <r_i_glide_intrahb_reward>  (82) 
-0

>  <i_i_glide_confnum>  (82) 
1

>  <i_i_glide_posenum>  (82) 
1

>  <r_i_glide_eff_state_penalty>  (82) 
0

>  <ligand_id>  (82) 
25

>  <original_smiles>  (82) 
CC1CC23OC4(C)OOC2(C)CCC3C(C)CCC14

>  <smiles>  (82) 
[H]C([H])([H])C12OOC3(C([H])([H])[H])C([H])([H])C([H])([H])C4([H])C([H])(C([H])([H])[H])C([H])([H])C([H])([H])C1([H])C([H])(C([H])([H])[H])C([H])([H])C43O2

$$$$
25:0:1
     RDKit          3D

 45 48  0  0  1  0  0  0  0  0999 V2000
    5.0020   -6.4623    1.0482 C   0  0  0  0  0  0  0  0  0  0  0  0
    4.3613   -5.4153    0.1246 C   0  0  2  0  0  0  0  0  0  0  0  0
    5.3610   -4.4558   -0.5173 C   0  0  0  0  0  0  0  0  0  0  0  0
    5.1750   -2.9436   -0.1400 C   0  0  1  0  0  0  0  0  0  0  0  0
    4.0566   -2.5447    0.6398 O   0  0  0  0  0  0  0  0  0  0  0  0
    3.8249   -3.4566    1.6309 C   0  0  2  0  0  0  0  0  0  0  0  0
    2.8196   -2.8390    2.6206 C   0  0  0  0  0  0  0  0  0  0  0  0
    5.0482   -3.7620    2.2921 O   0  0  0  0  0  0  0  0  0  0  0  0
    6.0030   -2.5547    2.1114 O   0  0  0  0  0  0  0  0  0  0  0  0
    6.2845   -2.3347    0.7193 C   0  0  1  0  0  0  0  0  0  0  0  0
    7.7353   -2.7272    0.3514 C   0  0  0  0  0  0  0  0  0  0  0  0
    6.0726   -0.8399    0.4588 C   0  0  0  0  0  0  0  0  0  0  0  0
    5.3629   -0.7097   -0.9051 C   0  0  0  0  0  0  0  0  0  0  0  0
    4.9074   -2.0920   -1.3619 C   0  0  2  0  0  0  0  0  0  0  0  0
    3.4195   -2.0756   -1.7990 C   0  0  1  0  0  0  0  0  0  0  0  0
    3.2806   -1.5246   -3.2204 C   0  0  0  0  0  0  0  0  0  0  0  0
    2.7138   -3.4531   -1.7134 C   0  0  0  0  0  0  0  0  0  0  0  0
    2.2706   -4.0694   -0.3425 C   0  0  0  0  0  0  0  0  0  0  0  0
    3.2362   -4.6055    0.7678 C   0  0  1  0  0  0  0  0  0  0  0  0
    5.5923   -6.0287    1.8550 H   0  0  0  0  0  0  0  0  0  0  0  0
    5.6707   -7.1109    0.4846 H   0  0  0  0  0  0  0  0  0  0  0  0
    4.2427   -7.0973    1.5029 H   0  0  0  0  0  0  0  0  0  0  0  0
    3.9140   -6.0034   -0.6743 H   0  0  0  0  0  0  0  0  0  0  0  0
    6.3643   -4.7956   -0.2837 H   0  0  0  0  0  0  0  0  0  0  0  0
    5.3021   -4.5777   -1.5970 H   0  0  0  0  0  0  0  0  0  0  0  0
    3.2437   -1.9654    3.1186 H   0  0  0  0  0  0  0  0  0  0  0  0
    2.5243   -3.5542    3.3866 H   0  0  0  0  0  0  0  0  0  0  0  0
    1.9153   -2.5024    2.1201 H   0  0  0  0  0  0  0  0  0  0  0  0
    7.9258   -2.6167   -0.7133 H   0  0  0  0  0  0  0  0  0  0  0  0
    7.9794   -3.7495    0.6320 H   0  0  0  0  0  0  0  0  0  0  0  0
    8.4569   -2.0928    0.8677 H   0  0  0  0  0  0  0  0  0  0  0  0
    5.4051   -0.4300    1.2247 H   0  0  0  0  0  0  0  0  0  0  0  0
    7.0028   -0.2763    0.4932 H   0  0  0  0  0  0  0  0  0  0  0  0
    4.5701    0.0101   -0.8669 H   0  0  0  0  0  0  0  0  0  0  0  0
    6.0770   -0.3929   -1.6759 H   0  0  0  0  0  0  0  0  0  0  0  0
    5.5423   -2.4216   -2.1809 H   0  0  0  0  0  0  0  0  0  0  0  0
    2.8791   -1.4035   -1.1412 H   0  0  0  0  0  0  0  0  0  0  0  0
    3.7910   -2.1544   -3.9445 H   0  0  0  0  0  0  0  0  0  0  0  0
    3.6897   -0.5228   -3.2919 H   0  0  0  0  0  0  0  0  0  0  0  0
    2.2306   -1.4802   -3.5051 H   0  0  0  0  0  0  0  0  0  0  0  0
    1.7799   -3.3675   -2.2718 H   0  0  0  0  0  0  0  0  0  0  0  0
    3.3064   -4.1620   -2.2621 H   0  0  0  0  0  0  0  0  0  0  0  0
    1.6583   -3.2856    0.0925 H   0  0  0  0  0  0  0  0  0  0  0  0
    1.6141   -4.9151   -0.5815 H   0  0  0  0  0  0  0  0  0  0  0  0
    2.6846   -5.2649    1.4386 H   0  0  0  0  0  0  0  0  0  0  0  0
  1  2  1  0
  1 20  1  0
  1 21  1  0
  1 22  1  0
  2 19  1  0
  2  3  1  0
  2 23  1  6
  4  3  1  6
  3 24  1  0
  3 25  1  0
  4 10  1  0
  4 14  1  0
  4  5  1  0
  5  6  1  0
  6 19  1  0
  6  7  1  1
  6  8  1  0
  7 26  1  0
  7 27  1  0
  7 28  1  0
  8  9  1  0
  9 10  1  0
 10 11  1  6
 10 12  1  0
 11 29  1  0
 11 30  1  0
 11 31  1  0
 12 13  1  0
 12 32  1  0
 12 33  1  0
 13 14  1  0
 13 34  1  0
 13 35  1  0
 14 15  1  0
 14 36  1  6
 15 16  1  0
 15 17  1  0
 15 37  1  1
 16 38  1  0
 16 39  1  0
 16 40  1  0
 17 18  1  0
 17 41  1  0
 17 42  1  0
 18 19  1  0
 18 43  1  0
 18 44  1  0
 19 45  1  1
M  END
>  <i_m_ct_stereo_status>  (83) 
1

>  <s_m_source_file>  (83) 
/var/tmp/pbs.5076255.sched01/tmpgn4o3w3f/0whq8s7pj.sdf

>  <i_m_source_file_index>  (83) 
42

>  <i_lp_mmshare_version>  (83) 
48012

>  <i_f3d_flags>  (83) 
0

>  <s_epik_input>  (83) 
W0NAXTEyM1tDQF00KFtDSDNdKU9PW0NAXShPMikoW0NIM10pW0NASF0oW0NASF0oW0NIM10pW0NIMl0xKVtDSDJdW0NIMl1bQ0BIXShbQ0gzXSlbQ0BIXTNbQ0gyXVtDSDJdNA==

>  <s_epik_cmdline>  (83) 
J2VwaWtfcHl0aG9uJywgJy1waHQnLCAnMi4wJywgJy1waCcsICc3LjAnLCAnLXRuJywgJzgnLCAnLW1hJywgJzIwMCcsICctaW1hZScsICc8aW5maWxlLm1hZT4nLCAnLW9tYWUnLCAnPG91dGZpbGUubWFlPic=

>  <r_lp_tautomer_probability>  (83) 
1

>  <r_epik_Ionization_Penalty>  (83) 
5.23602e-14

>  <r_epik_Ionization_Penalty_Charging>  (83) 
0

>  <r_epik_Ionization_Penalty_Neutral>  (83) 
5.23602e-14

>  <r_epik_State_Penalty>  (83) 
-0

>  <r_epik_Charging_Adjusted_Penalty>  (83) 
0

>  <i_epik_Tot_Q>  (83) 
0

>  <i_epik_Tot_abs_Q>  (83) 
0

>  <s_lp_Force_Field>  (83) 
OPLS3e

>  <r_lp_Energy>  (83) 
60.4774

>  <b_lp_Chiralities_Consistent>  (83) 
1

>  <s_lp_Variant>  (83) 
25:0-1

>  <s_i_glide_gridfile>  (83) 
pfpi4k_grid

>  <i_i_glide_lignum>  (83) 
42

>  <i_i_glide_rotatable_bonds>  (83) 
0

>  <r_i_docking_score>  (83) 
-3.015

>  <r_i_glide_ligand_efficiency>  (83) 
-0.158684

>  <r_i_glide_ligand_efficiency_sa>  (83) 
-0.423433

>  <r_i_glide_ligand_efficiency_ln>  (83) 
-0.764367

>  <r_i_glide_gscore>  (83) 
-3.015

>  <r_i_glide_lipo>  (83) 
-0.757475

>  <r_i_glide_hbond>  (83) 
0

>  <r_i_glide_metal>  (83) 
-0

>  <r_i_glide_rewards>  (83) 
-1.60076

>  <r_i_glide_evdw>  (83) 
-13.0893

>  <r_i_glide_ecoul>  (83) 
-0.0152949

>  <r_i_glide_erotb>  (83) 
0

>  <r_i_glide_esite>  (83) 
0

>  <r_i_glide_emodel>  (83) 
-15.6293

>  <r_i_glide_energy>  (83) 
-13.1046

>  <r_i_glide_einternal>  (83) 
0

>  <r_i_glide_intrahb_reward>  (83) 
-0

>  <i_i_glide_confnum>  (83) 
1

>  <i_i_glide_posenum>  (83) 
2

>  <r_i_glide_eff_state_penalty>  (83) 
0

>  <ligand_id>  (83) 
25

>  <original_smiles>  (83) 
CC1CC23OC4(C)OOC2(C)CCC3C(C)CCC14

>  <smiles>  (83) 
[H]C([H])([H])C12OOC3(C([H])([H])[H])C([H])([H])C([H])([H])C4([H])C([H])(C([H])([H])[H])C([H])([H])C([H])([H])C1([H])C([H])(C([H])([H])[H])C([H])([H])C43O2

$$$$
25:0:2
     RDKit          3D

 45 48  0  0  1  0  0  0  0  0999 V2000
    6.3935   -6.0244    2.0680 C   0  0  0  0  0  0  0  0  0  0  0  0
    5.1110   -5.5505    1.3769 C   0  0  2  0  0  0  0  0  0  0  0  0
    5.3758   -4.9033    0.0024 C   0  0  0  0  0  0  0  0  0  0  0  0
    4.9409   -3.3878   -0.1334 C   0  0  1  0  0  0  0  0  0  0  0  0
    4.2147   -2.7930    0.9317 O   0  0  0  0  0  0  0  0  0  0  0  0
    4.7439   -3.1700    2.1128 C   0  0  2  0  0  0  0  0  0  0  0  0
    4.1870   -2.2602    3.2126 C   0  0  0  0  0  0  0  0  0  0  0  0
    6.1483   -3.0287    2.0847 O   0  0  0  0  0  0  0  0  0  0  0  0
    6.5179   -1.9618    1.0124 O   0  0  0  0  0  0  0  0  0  0  0  0
    6.0502   -2.3710   -0.2719 C   0  0  1  0  0  0  0  0  0  0  0  0
    7.2363   -2.7727   -1.1796 C   0  0  0  0  0  0  0  0  0  0  0  0
    5.2824   -1.1773   -0.8982 C   0  0  0  0  0  0  0  0  0  0  0  0
    4.0930   -1.7395   -1.6890 C   0  0  0  0  0  0  0  0  0  0  0  0
    3.9073   -3.2058   -1.2395 C   0  0  2  0  0  0  0  0  0  0  0  0
    2.4843   -3.5369   -0.7010 C   0  0  1  0  0  0  0  0  0  0  0  0
    1.5278   -3.5585   -1.8801 C   0  0  0  0  0  0  0  0  0  0  0  0
    2.3719   -4.8417    0.1799 C   0  0  0  0  0  0  0  0  0  0  0  0
    2.7175   -4.7631    1.7142 C   0  0  0  0  0  0  0  0  0  0  0  0
    4.2149   -4.6324    2.2007 C   0  0  1  0  0  0  0  0  0  0  0  0
    7.1260   -5.2265    2.2301 H   0  0  0  0  0  0  0  0  0  0  0  0
    6.8946   -6.7917    1.4894 H   0  0  0  0  0  0  0  0  0  0  0  0
    6.1615   -6.4447    3.0463 H   0  0  0  0  0  0  0  0  0  0  0  0
    4.5346   -6.4696    1.1852 H   0  0  0  0  0  0  0  0  0  0  0  0
    6.4376   -4.9780   -0.2103 H   0  0  0  0  0  0  0  0  0  0  0  0
    4.9289   -5.5130   -0.7828 H   0  0  0  0  0  0  0  0  0  0  0  0
    4.5208   -1.2316    3.0514 H   0  0  0  0  0  0  0  0  0  0  0  0
    4.5236   -2.5872    4.1975 H   0  0  0  0  0  0  0  0  0  0  0  0
    3.0986   -2.2560    3.2000 H   0  0  0  0  0  0  0  0  0  0  0  0
    6.8960   -3.1277   -2.1475 H   0  0  0  0  0  0  0  0  0  0  0  0
    7.8529   -3.5582   -0.7410 H   0  0  0  0  0  0  0  0  0  0  0  0
    7.9258   -1.9544   -1.3569 H   0  0  0  0  0  0  0  0  0  0  0  0
    4.8961   -0.5591   -0.0783 H   0  0  0  0  0  0  0  0  0  0  0  0
    5.8675   -0.5264   -1.5257 H   0  0  0  0  0  0  0  0  0  0  0  0
    3.2042   -1.1293   -1.5026 H   0  0  0  0  0  0  0  0  0  0  0  0
    4.3153   -1.7120   -2.7602 H   0  0  0  0  0  0  0  0  0  0  0  0
    4.1588   -3.8597   -2.0884 H   0  0  0  0  0  0  0  0  0  0  0  0
    2.1459   -2.7089   -0.0809 H   0  0  0  0  0  0  0  0  0  0  0  0
    1.8097   -4.3250   -2.5766 H   0  0  0  0  0  0  0  0  0  0  0  0
    1.5164   -2.6426   -2.4634 H   0  0  0  0  0  0  0  0  0  0  0  0
    0.5029   -3.7595   -1.5639 H   0  0  0  0  0  0  0  0  0  0  0  0
    1.3373   -5.1584    0.1475 H   0  0  0  0  0  0  0  0  0  0  0  0
    2.8649   -5.6781   -0.3007 H   0  0  0  0  0  0  0  0  0  0  0  0
    2.1177   -3.9835    2.1771 H   0  0  0  0  0  0  0  0  0  0  0  0
    2.3518   -5.6918    2.1628 H   0  0  0  0  0  0  0  0  0  0  0  0
    4.2720   -4.9543    3.2469 H   0  0  0  0  0  0  0  0  0  0  0  0
  1  2  1  0
  1 20  1  0
  1 21  1  0
  1 22  1  0
  2 19  1  0
  2  3  1  0
  2 23  1  6
  4  3  1  1
  3 24  1  0
  3 25  1  0
  4 10  1  0
  4 14  1  0
  4  5  1  0
  5  6  1  0
  6 19  1  0
  6  7  1  1
  6  8  1  0
  7 26  1  0
  7 27  1  0
  7 28  1  0
  8  9  1  0
  9 10  1  0
 10 11  1  6
 10 12  1  0
 11 29  1  0
 11 30  1  0
 11 31  1  0
 12 13  1  0
 12 32  1  0
 12 33  1  0
 13 14  1  0
 13 34  1  0
 13 35  1  0
 14 15  1  0
 14 36  1  6
 15 16  1  0
 15 17  1  0
 15 37  1  1
 16 38  1  0
 16 39  1  0
 16 40  1  0
 17 18  1  0
 17 41  1  0
 17 42  1  0
 18 19  1  0
 18 43  1  0
 18 44  1  0
 19 45  1  1
M  END
>  <i_m_ct_stereo_status>  (84) 
1

>  <s_m_source_file>  (84) 
/var/tmp/pbs.5076255.sched01/tmpgn4o3w3f/0whq8s7pj.sdf

>  <i_m_source_file_index>  (84) 
42

>  <i_lp_mmshare_version>  (84) 
48012

>  <i_f3d_flags>  (84) 
0

>  <s_epik_input>  (84) 
W0NAXTEyM1tDQF00KFtDSDNdKU9PW0NAXShPMikoW0NIM10pW0NASF0oW0NASF0oW0NIM10pW0NIMl0xKVtDSDJdW0NIMl1bQ0BIXShbQ0gzXSlbQ0BIXTNbQ0gyXVtDSDJdNA==

>  <s_epik_cmdline>  (84) 
J2VwaWtfcHl0aG9uJywgJy1waHQnLCAnMi4wJywgJy1waCcsICc3LjAnLCAnLXRuJywgJzgnLCAnLW1hJywgJzIwMCcsICctaW1hZScsICc8aW5maWxlLm1hZT4nLCAnLW9tYWUnLCAnPG91dGZpbGUubWFlPic=

>  <r_lp_tautomer_probability>  (84) 
1

>  <r_epik_Ionization_Penalty>  (84) 
5.23602e-14

>  <r_epik_Ionization_Penalty_Charging>  (84) 
0

>  <r_epik_Ionization_Penalty_Neutral>  (84) 
5.23602e-14

>  <r_epik_State_Penalty>  (84) 
-0

>  <r_epik_Charging_Adjusted_Penalty>  (84) 
0

>  <i_epik_Tot_Q>  (84) 
0

>  <i_epik_Tot_abs_Q>  (84) 
0

>  <s_lp_Force_Field>  (84) 
OPLS3e

>  <r_lp_Energy>  (84) 
60.4774

>  <b_lp_Chiralities_Consistent>  (84) 
1

>  <s_lp_Variant>  (84) 
25:0-1

>  <s_i_glide_gridfile>  (84) 
pfpi4k_grid

>  <i_i_glide_lignum>  (84) 
42

>  <i_i_glide_rotatable_bonds>  (84) 
0

>  <r_i_docking_score>  (84) 
-2.6105

>  <r_i_glide_ligand_efficiency>  (84) 
-0.137395

>  <r_i_glide_ligand_efficiency_sa>  (84) 
-0.366625

>  <r_i_glide_ligand_efficiency_ln>  (84) 
-0.661818

>  <r_i_glide_gscore>  (84) 
-2.6105

>  <r_i_glide_lipo>  (84) 
-0.201138

>  <r_i_glide_hbond>  (84) 
0

>  <r_i_glide_metal>  (84) 
-0

>  <r_i_glide_rewards>  (84) 
-1.63561

>  <r_i_glide_evdw>  (84) 
-17.0866

>  <r_i_glide_ecoul>  (84) 
0.5372

>  <r_i_glide_erotb>  (84) 
0

>  <r_i_glide_esite>  (84) 
0

>  <r_i_glide_emodel>  (84) 
-18.8212

>  <r_i_glide_energy>  (84) 
-16.5494

>  <r_i_glide_einternal>  (84) 
0

>  <r_i_glide_intrahb_reward>  (84) 
-0

>  <i_i_glide_confnum>  (84) 
1

>  <i_i_glide_posenum>  (84) 
13

>  <r_i_glide_eff_state_penalty>  (84) 
0

>  <ligand_id>  (84) 
25

>  <original_smiles>  (84) 
CC1CC23OC4(C)OOC2(C)CCC3C(C)CCC14

>  <smiles>  (84) 
[H]C([H])([H])C12OOC3(C([H])([H])[H])C([H])([H])C([H])([H])C4([H])C([H])(C([H])([H])[H])C([H])([H])C([H])([H])C1([H])C([H])(C([H])([H])[H])C([H])([H])C43O2

$$$$
26:0:0
     RDKit          3D

 77 84  0  0  1  0  0  0  0  0999 V2000
    6.4085   -3.2656   -1.8708 C   0  0  0  0  0  0  0  0  0  0  0  0
    5.7020   -2.9026   -0.7795 C   0  0  0  0  0  0  0  0  0  0  0  0
    4.3558   -2.1087   -0.8675 C   0  0  1  0  0  0  0  0  0  0  0  0
    3.5726   -2.3790   -2.1696 C   0  0  0  0  0  0  0  0  0  0  0  0
    3.4033   -2.2255    0.3934 C   0  0  0  0  0  0  0  0  0  0  0  0
    4.1013   -2.2966    1.7715 C   0  0  1  0  0  0  0  0  0  0  0  0
    3.7051   -1.3643    2.7636 O   0  0  0  0  0  0  0  0  0  0  0  0
    4.0810   -2.4064    3.7870 O   0  0  0  0  0  0  0  0  0  0  0  0
    3.7778   -3.4421    2.8196 C   0  0  2  0  0  0  0  0  0  0  0  0
    4.9373   -4.4162    2.7635 C   0  0  2  0  0  0  0  0  0  0  0  0
    3.8874   -4.8981    2.0565 O   0  0  0  0  0  0  0  0  0  0  0  0
    5.4850   -4.7351    4.1348 C   0  0  0  0  0  0  0  0  0  0  0  0
    5.1166   -6.1207    4.3692 C   0  0  1  0  0  0  0  0  0  0  0  0
    6.0821   -6.7169    5.4356 C   0  0  0  0  0  0  0  0  0  0  0  0
    3.6476   -6.0360    5.0172 C   0  0  0  0  0  0  0  0  0  0  0  0
    3.3225   -7.0102    5.6986 O   0  0  0  0  0  0  0  0  0  0  0  0
    2.6621   -4.7690    4.9941 C   0  0  2  0  0  0  0  0  0  0  0  0
    2.9683   -3.8494    6.2257 C   0  0  0  0  0  0  0  0  0  0  0  0
    1.2445   -5.3063    5.2387 C   0  0  0  0  0  0  0  0  0  0  0  0
    0.7635   -5.5170    6.3475 O   0  0  0  0  0  0  0  0  0  0  0  0
    0.6105   -5.4503    4.0624 O   0  0  0  0  0  0  0  0  0  0  0  0
    1.4728   -5.2159    2.9639 C   0  0  2  0  0  0  0  0  0  0  0  0
    1.7273   -6.7929    2.6845 C   0  0  0  0  0  0  0  0  0  0  0  0
    2.9495   -7.3007    1.8976 C   0  0  1  0  0  0  0  0  0  0  0  0
    4.1739   -7.7201    2.7361 C   0  0  1  0  0  0  0  0  0  0  0  0
    3.5599   -8.6824    1.7513 C   0  0  0  0  0  0  0  0  0  0  0  0
    2.7148   -9.8483    2.2301 C   0  0  0  0  0  0  0  0  0  0  0  0
    4.3788   -9.1374    0.5728 C   0  0  0  0  0  0  0  0  0  0  0  0
    5.3969   -6.7398    2.8822 C   0  0  2  0  0  0  0  0  0  0  0  0
    6.5575   -7.5632    2.8573 O   0  0  0  0  0  0  0  0  0  0  0  0
    5.5607   -5.4983    1.8048 C   0  0  1  0  0  0  0  0  0  0  0  0
    5.1689   -6.0239    0.4830 O   0  0  0  0  0  0  0  0  0  0  0  0
    6.7504   -4.5571    1.2816 C   0  0  1  0  0  0  0  0  0  0  0  0
    7.7074   -5.1968    0.4650 O   0  0  0  0  0  0  0  0  0  0  0  0
    6.1666   -3.1903    0.6511 C   0  0  1  0  0  0  0  0  0  0  0  0
    5.6443   -2.1001    1.6131 C   0  0  1  0  0  0  0  0  0  0  0  0
    6.0291   -0.8314    1.1280 O   0  0  0  0  0  0  0  0  0  0  0  0
    2.3937   -4.0226    3.6200 C   0  0  2  0  0  0  0  0  0  0  0  0
    1.4113   -2.8039    3.7387 C   0  0  0  0  0  0  0  0  0  0  0  0
    7.3353   -3.7979   -1.7481 H   0  0  0  0  0  0  0  0  0  0  0  0
    6.0783   -3.0638   -2.8775 H   0  0  0  0  0  0  0  0  0  0  0  0
    4.6568   -1.0627   -0.9267 H   0  0  0  0  0  0  0  0  0  0  0  0
    4.1192   -2.0401   -3.0531 H   0  0  0  0  0  0  0  0  0  0  0  0
    2.6229   -1.8349   -2.1669 H   0  0  0  0  0  0  0  0  0  0  0  0
    3.3472   -3.4408   -2.2980 H   0  0  0  0  0  0  0  0  0  0  0  0
    2.6900   -1.3999    0.3700 H   0  0  0  0  0  0  0  0  0  0  0  0
    2.8141   -3.1278    0.2587 H   0  0  0  0  0  0  0  0  0  0  0  0
    3.8938   -4.5370    1.1867 H   0  0  0  0  0  0  0  0  0  0  0  0
    6.5680   -4.7380    4.0893 H   0  0  0  0  0  0  0  0  0  0  0  0
    5.2549   -4.0442    4.9330 H   0  0  0  0  0  0  0  0  0  0  0  0
    7.1353   -6.5094    5.2173 H   0  0  0  0  0  0  0  0  0  0  0  0
    5.9804   -7.8031    5.5061 H   0  0  0  0  0  0  0  0  0  0  0  0
    5.8940   -6.3030    6.4280 H   0  0  0  0  0  0  0  0  0  0  0  0
    3.1571   -4.4535    7.1127 H   0  0  0  0  0  0  0  0  0  0  0  0
    2.1126   -3.2183    6.4740 H   0  0  0  0  0  0  0  0  0  0  0  0
    3.8110   -3.1736    6.1080 H   0  0  0  0  0  0  0  0  0  0  0  0
    0.9323   -4.8119    2.1114 H   0  0  0  0  0  0  0  0  0  0  0  0
    1.7199   -7.3889    3.5966 H   0  0  0  0  0  0  0  0  0  0  0  0
    0.8678   -7.1722    2.1300 H   0  0  0  0  0  0  0  0  0  0  0  0
    2.9867   -6.8417    0.9257 H   0  0  0  0  0  0  0  0  0  0  0  0
    4.0547   -8.2404    3.6611 H   0  0  0  0  0  0  0  0  0  0  0  0
    3.3427  -10.7097    2.4685 H   0  0  0  0  0  0  0  0  0  0  0  0
    2.0063  -10.1373    1.4528 H   0  0  0  0  0  0  0  0  0  0  0  0
    2.1508   -9.5782    3.1149 H   0  0  0  0  0  0  0  0  0  0  0  0
    4.9607  -10.0124    0.8573 H   0  0  0  0  0  0  0  0  0  0  0  0
    5.0770   -8.3822    0.2567 H   0  0  0  0  0  0  0  0  0  0  0  0
    3.7553   -9.4388   -0.2651 H   0  0  0  0  0  0  0  0  0  0  0  0
    7.3315   -7.0392    3.0025 H   0  0  0  0  0  0  0  0  0  0  0  0
    5.2456   -5.3449   -0.1804 H   0  0  0  0  0  0  0  0  0  0  0  0
    7.3979   -4.2602    2.0926 H   0  0  0  0  0  0  0  0  0  0  0  0
    8.0914   -5.9300    0.9255 H   0  0  0  0  0  0  0  0  0  0  0  0
    5.2756   -3.7301    0.4489 H   0  0  0  0  0  0  0  0  0  0  0  0
    6.1534   -2.1957    2.5727 H   0  0  0  0  0  0  0  0  0  0  0  0
    6.8857   -0.5962    1.4597 H   0  0  0  0  0  0  0  0  0  0  0  0
    0.3999   -3.0500    4.0684 H   0  0  0  0  0  0  0  0  0  0  0  0
    1.2794   -2.3127    2.7753 H   0  0  0  0  0  0  0  0  0  0  0  0
    1.7724   -2.0435    4.4320 H   0  0  0  0  0  0  0  0  0  0  0  0
  1  2  2  0
  1 40  1  0
  1 41  1  0
  2 35  1  0
  2  3  1  0
  3  4  1  0
  3  5  1  0
  3 42  1  6
  4 43  1  0
  4 44  1  0
  4 45  1  0
  5  6  1  0
  5 46  1  0
  5 47  1  0
  6  9  1  0
  6 36  1  0
  6  7  1  1
  7  8  1  0
  9  8  1  1
  9 38  1  0
  9 10  1  0
 10 31  1  0
 10 11  1  1
 10 12  1  0
 11 48  1  0
 12 13  1  0
 12 49  1  0
 12 50  1  0
 13 29  1  0
 13 14  1  1
 13 15  1  0
 14 51  1  0
 14 52  1  0
 14 53  1  0
 15 16  2  0
 15 17  1  0
 17 38  1  0
 17 18  1  1
 17 19  1  0
 18 54  1  0
 18 55  1  0
 18 56  1  0
 19 20  2  0
 19 21  1  0
 21 22  1  0
 22 23  1  0
 22 38  1  0
 22 57  1  6
 23 24  1  0
 23 58  1  0
 23 59  1  0
 24 26  1  0
 24 25  1  0
 24 60  1  6
 25 26  1  0
 25 29  1  0
 25 61  1  1
 26 27  1  0
 26 28  1  0
 27 62  1  0
 27 63  1  0
 27 64  1  0
 28 65  1  0
 28 66  1  0
 28 67  1  0
 29 30  1  1
 29 31  1  0
 30 68  1  0
 31 32  1  6
 31 33  1  0
 32 69  1  0
 33 34  1  0
 33 35  1  0
 33 70  1  1
 34 71  1  0
 35 36  1  0
 35 72  1  6
 36 37  1  0
 36 73  1  1
 37 74  1  0
 38 39  1  1
 39 75  1  0
 39 76  1  0
 39 77  1  0
M  END
>  <i_m_ct_stereo_status>  (85) 
1

>  <s_m_source_file>  (85) 
/var/tmp/pbs.5076255.sched01/tmpa1vw3d_c/4207j0axjo.sdf

>  <i_m_source_file_index>  (85) 
1

>  <i_lp_mmshare_version>  (85) 
48012

>  <i_f3d_flags>  (85) 
0

>  <s_epik_input>  (85) 
W0NIM11bQ0BASF0oW0NIMl0xKUMoPVtDSDJdKVtDSF0oW0NASF0yW09IXSlbQ0BIXShbT0hdKVtDQF0oW09IXSkoW0NAXTMoW09IXSlbQ0BdNChbQ0BdMTI1KU9PNSlbQ0BAXTYoW09IXSlbQ0BdKFtDSDJdMykoW0NIM10pQyg9TylbQ0BAXTcoW0NIM10pW0NAXTQoW0NIM10pW0NASF0oT0M3PU8pW0NIMl1bQ0BIXThbQ0BIXTZDOChbQ0gzXSlbQ0gzXQ==

>  <s_epik_cmdline>  (85) 
J2VwaWtfcHl0aG9uJywgJy1waHQnLCAnMi4wJywgJy1waCcsICc3LjAnLCAnLXRuJywgJzgnLCAnLW1hJywgJzIwMCcsICctaW1hZScsICc8aW5maWxlLm1hZT4nLCAnLW9tYWUnLCAnPG91dGZpbGUubWFlPic=

>  <r_lp_tautomer_probability>  (85) 
1

>  <r_epik_Ionization_Penalty>  (85) 
4.29892e-06

>  <r_epik_Ionization_Penalty_Charging>  (85) 
0

>  <r_epik_Ionization_Penalty_Neutral>  (85) 
4.29892e-06

>  <r_epik_State_Penalty>  (85) 
-0

>  <r_epik_Charging_Adjusted_Penalty>  (85) 
0

>  <i_epik_Tot_Q>  (85) 
0

>  <i_epik_Tot_abs_Q>  (85) 
0

>  <s_epik_Chemistry_Notes>  (85) 
This compound has an ester and may undergo hydrolysis at high or low pH.

>  <s_lp_Force_Field>  (85) 
OPLS3e

>  <r_lp_Energy>  (85) 
370.441

>  <b_lp_Chiralities_Consistent>  (85) 
1

>  <s_lp_Variant>  (85) 
26:0-1

>  <s_i_glide_gridfile>  (85) 
pfpi4k_grid

>  <i_i_glide_lignum>  (85) 
1

>  <i_i_glide_rotatable_bonds>  (85) 
5

>  <r_i_docking_score>  (85) 
-2.61239

>  <r_i_glide_ligand_efficiency>  (85) 
-0.0669845

>  <r_i_glide_ligand_efficiency_sa>  (85) 
-0.227159

>  <r_i_glide_ligand_efficiency_ln>  (85) 
-0.560172

>  <r_i_glide_gscore>  (85) 
-2.61239

>  <r_i_glide_lipo>  (85) 
-0.547705

>  <r_i_glide_hbond>  (85) 
0

>  <r_i_glide_metal>  (85) 
-0

>  <r_i_glide_rewards>  (85) 
0

>  <r_i_glide_evdw>  (85) 
-29.8495

>  <r_i_glide_ecoul>  (85) 
-3.811

>  <r_i_glide_erotb>  (85) 
0

>  <r_i_glide_esite>  (85) 
-0.000563597

>  <r_i_glide_emodel>  (85) 
-38.3779

>  <r_i_glide_energy>  (85) 
-33.6605

>  <r_i_glide_einternal>  (85) 
1.23335

>  <r_i_glide_intrahb_reward>  (85) 
-0

>  <i_i_glide_confnum>  (85) 
2

>  <i_i_glide_posenum>  (85) 
7

>  <r_i_glide_eff_state_penalty>  (85) 
0

>  <ligand_id>  (85) 
26

>  <original_smiles>  (85) 
C=C1C(C)CC23OOC24C2(O)CC5(C)C(=O)C6(C)C(=O)OC(CC7C(C7(C)C)C5(O)C2(O)C(O)C1C3O)C64C

>  <smiles>  (85) 
[H]OC1([H])C2([H])C(=C([H])[H])C([H])(C([H])([H])[H])C([H])([H])C13OOC31C3(O[H])C([H])([H])C4(C([H])([H])[H])C(=O)C5(C([H])([H])[H])C(=O)OC([H])(C([H])([H])C6([H])C([H])(C4(O[H])C3(O[H])C2([H])O[H])C6(C([H])([H])[H])C([H])([H])[H])C51C([H])([H])[H]

$$$$
26:0:1
     RDKit          3D

 77 84  0  0  1  0  0  0  0  0999 V2000
    6.0820   -3.3116   -1.8242 C   0  0  0  0  0  0  0  0  0  0  0  0
    5.3927   -2.9339   -0.7262 C   0  0  0  0  0  0  0  0  0  0  0  0
    4.0218   -2.1782   -0.7961 C   0  0  1  0  0  0  0  0  0  0  0  0
    3.2258   -2.4909   -2.0803 C   0  0  0  0  0  0  0  0  0  0  0  0
    3.1036   -2.3050    0.4938 C   0  0  0  0  0  0  0  0  0  0  0  0
    3.8289   -2.3324    1.8557 C   0  0  1  0  0  0  0  0  0  0  0  0
    3.4324   -1.3944    2.8413 O   0  0  0  0  0  0  0  0  0  0  0  0
    3.8544   -2.4125    3.8696 O   0  0  0  0  0  0  0  0  0  0  0  0
    3.5598   -3.4680    2.9270 C   0  0  2  0  0  0  0  0  0  0  0  0
    4.7370   -4.4172    2.8505 C   0  0  2  0  0  0  0  0  0  0  0  0
    3.6796   -4.9353    2.1851 O   0  0  0  0  0  0  0  0  0  0  0  0
    5.3271   -4.6989    4.2207 C   0  0  0  0  0  0  0  0  0  0  0  0
    4.9945   -6.0932    4.4786 C   0  0  1  0  0  0  0  0  0  0  0  0
    5.9956   -6.6553    5.5309 C   0  0  0  0  0  0  0  0  0  0  0  0
    3.5399   -6.0386    5.1553 C   0  0  0  0  0  0  0  0  0  0  0  0
    3.2524   -7.0100    5.8570 O   0  0  0  0  0  0  0  0  0  0  0  0
    2.5209   -4.7951    5.1422 C   0  0  2  0  0  0  0  0  0  0  0  0
    2.8325   -3.8500    6.3530 C   0  0  0  0  0  0  0  0  0  0  0  0
    1.1209   -5.3575    5.4263 C   0  0  0  0  0  0  0  0  0  0  0  0
    0.6718   -5.5695    6.5544 O   0  0  0  0  0  0  0  0  0  0  0  0
    0.4627   -5.5320    4.2701 O   0  0  0  0  0  0  0  0  0  0  0  0
    1.2942   -5.2984    3.1476 C   0  0  2  0  0  0  0  0  0  0  0  0
    1.5847   -6.8727    2.8761 C   0  0  0  0  0  0  0  0  0  0  0  0
    2.8024   -7.3597    2.0681 C   0  0  1  0  0  0  0  0  0  0  0  0
    4.0526   -7.7358    2.8901 C   0  0  1  0  0  0  0  0  0  0  0  0
    3.4440   -8.7237    1.9332 C   0  0  0  0  0  0  0  0  0  0  0  0
    2.6345   -9.9016    2.4391 C   0  0  0  0  0  0  0  0  0  0  0  0
    4.2433   -9.1814    0.7391 C   0  0  0  0  0  0  0  0  0  0  0  0
    5.2569   -6.7234    2.9928 C   0  0  2  0  0  0  0  0  0  0  0  0
    6.4319   -7.5204    2.9507 O   0  0  0  0  0  0  0  0  0  0  0  0
    5.3608   -5.4977    1.8936 C   0  0  1  0  0  0  0  0  0  0  0  0
    4.9515   -6.0418    0.5854 O   0  0  0  0  0  0  0  0  0  0  0  0
    6.5234   -4.5364    1.3315 C   0  0  1  0  0  0  0  0  0  0  0  0
    7.4535   -5.1644    0.4794 O   0  0  0  0  0  0  0  0  0  0  0  0
    5.8900   -3.1896    0.6976 C   0  0  1  0  0  0  0  0  0  0  0  0
    5.3639   -2.0990    1.6590 C   0  0  1  0  0  0  0  0  0  0  0  0
    5.7202   -0.8195    1.1783 O   0  0  0  0  0  0  0  0  0  0  0  0
    2.2032   -4.0727    3.7636 C   0  0  2  0  0  0  0  0  0  0  0  0
    1.1983   -2.8748    3.8902 C   0  0  0  0  0  0  0  0  0  0  0  0
    7.0260   -3.8179   -1.7206 H   0  0  0  0  0  0  0  0  0  0  0  0
    5.7246   -3.1250   -2.8273 H   0  0  0  0  0  0  0  0  0  0  0  0
    4.2835   -1.1250   -0.8857 H   0  0  0  0  0  0  0  0  0  0  0  0
    3.7441   -2.1458   -2.9801 H   0  0  0  0  0  0  0  0  0  0  0  0
    2.2620   -1.9794   -2.0812 H   0  0  0  0  0  0  0  0  0  0  0  0
    3.0219   -3.5594   -2.1857 H   0  0  0  0  0  0  0  0  0  0  0  0
    2.3796   -1.4919    0.4860 H   0  0  0  0  0  0  0  0  0  0  0  0
    2.5275   -3.2197    0.3860 H   0  0  0  0  0  0  0  0  0  0  0  0
    3.7024   -4.6449    1.2837 H   0  0  0  0  0  0  0  0  0  0  0  0
    6.4077   -4.6540    4.1625 H   0  0  0  0  0  0  0  0  0  0  0  0
    5.0880   -4.0038    5.0144 H   0  0  0  0  0  0  0  0  0  0  0  0
    7.0372   -6.4268    5.2815 H   0  0  0  0  0  0  0  0  0  0  0  0
    5.9179   -7.7409    5.6131 H   0  0  0  0  0  0  0  0  0  0  0  0
    5.8175   -6.2347    6.5204 H   0  0  0  0  0  0  0  0  0  0  0  0
    3.0548   -4.4405    7.2420 H   0  0  0  0  0  0  0  0  0  0  0  0
    1.9679   -3.2358    6.6116 H   0  0  0  0  0  0  0  0  0  0  0  0
    3.6557   -3.1559    6.2080 H   0  0  0  0  0  0  0  0  0  0  0  0
    0.6940   -4.9246    2.3186 H   0  0  0  0  0  0  0  0  0  0  0  0
    1.6112   -7.4507    3.7983 H   0  0  0  0  0  0  0  0  0  0  0  0
    0.7212   -7.2760    2.3467 H   0  0  0  0  0  0  0  0  0  0  0  0
    2.8068   -6.9144    1.0922 H   0  0  0  0  0  0  0  0  0  0  0  0
    3.9713   -8.2469    3.8250 H   0  0  0  0  0  0  0  0  0  0  0  0
    3.2771  -10.7544    2.6634 H   0  0  0  0  0  0  0  0  0  0  0  0
    1.9103  -10.1899    1.6768 H   0  0  0  0  0  0  0  0  0  0  0  0
    2.0894   -9.6370    3.3397 H   0  0  0  0  0  0  0  0  0  0  0  0
    4.8461  -10.0491    1.0097 H   0  0  0  0  0  0  0  0  0  0  0  0
    4.9263   -8.4225    0.3831 H   0  0  0  0  0  0  0  0  0  0  0  0
    3.5783   -9.4963   -0.0640 H   0  0  0  0  0  0  0  0  0  0  0  0
    7.1985   -6.9739    3.0899 H   0  0  0  0  0  0  0  0  0  0  0  0
    5.0628   -5.3864   -0.0991 H   0  0  0  0  0  0  0  0  0  0  0  0
    7.1533   -4.2149    2.1496 H   0  0  0  0  0  0  0  0  0  0  0  0
    7.8757   -5.8700    0.9483 H   0  0  0  0  0  0  0  0  0  0  0  0
    5.0069   -3.7531    0.5266 H   0  0  0  0  0  0  0  0  0  0  0  0
    5.9093   -2.1745    2.5989 H   0  0  0  0  0  0  0  0  0  0  0  0
    5.1526   -0.5849    0.4512 H   0  0  0  0  0  0  0  0  0  0  0  0
    0.1968   -3.1394    4.2432 H   0  0  0  0  0  0  0  0  0  0  0  0
    1.0360   -2.3998    2.9223 H   0  0  0  0  0  0  0  0  0  0  0  0
    1.5553   -2.0980    4.5681 H   0  0  0  0  0  0  0  0  0  0  0  0
  1  2  2  0
  1 40  1  0
  1 41  1  0
  2 35  1  0
  2  3  1  0
  3  4  1  0
  3  5  1  0
  3 42  1  6
  4 43  1  0
  4 44  1  0
  4 45  1  0
  5  6  1  0
  5 46  1  0
  5 47  1  0
  6  9  1  0
  6 36  1  0
  6  7  1  1
  7  8  1  0
  9  8  1  1
  9 38  1  0
  9 10  1  0
 10 31  1  0
 10 11  1  1
 10 12  1  0
 11 48  1  0
 12 13  1  0
 12 49  1  0
 12 50  1  0
 13 29  1  0
 13 14  1  1
 13 15  1  0
 14 51  1  0
 14 52  1  0
 14 53  1  0
 15 16  2  0
 15 17  1  0
 17 38  1  0
 17 18  1  1
 17 19  1  0
 18 54  1  0
 18 55  1  0
 18 56  1  0
 19 20  2  0
 19 21  1  0
 21 22  1  0
 22 23  1  0
 22 38  1  0
 22 57  1  6
 23 24  1  0
 23 58  1  0
 23 59  1  0
 24 26  1  0
 24 25  1  0
 24 60  1  6
 25 26  1  0
 25 29  1  0
 25 61  1  1
 26 27  1  0
 26 28  1  0
 27 62  1  0
 27 63  1  0
 27 64  1  0
 28 65  1  0
 28 66  1  0
 28 67  1  0
 29 30  1  1
 29 31  1  0
 30 68  1  0
 31 32  1  6
 31 33  1  0
 32 69  1  0
 33 34  1  0
 33 35  1  0
 33 70  1  1
 34 71  1  0
 35 36  1  0
 35 72  1  6
 36 37  1  0
 36 73  1  1
 37 74  1  0
 38 39  1  1
 39 75  1  0
 39 76  1  0
 39 77  1  0
M  END
>  <i_m_ct_stereo_status>  (86) 
1

>  <s_m_source_file>  (86) 
/var/tmp/pbs.5076255.sched01/tmpa1vw3d_c/4207j0axjo.sdf

>  <i_m_source_file_index>  (86) 
1

>  <i_lp_mmshare_version>  (86) 
48012

>  <i_f3d_flags>  (86) 
0

>  <s_epik_input>  (86) 
W0NIM11bQ0BASF0oW0NIMl0xKUMoPVtDSDJdKVtDSF0oW0NASF0yW09IXSlbQ0BIXShbT0hdKVtDQF0oW09IXSkoW0NAXTMoW09IXSlbQ0BdNChbQ0BdMTI1KU9PNSlbQ0BAXTYoW09IXSlbQ0BdKFtDSDJdMykoW0NIM10pQyg9TylbQ0BAXTcoW0NIM10pW0NAXTQoW0NIM10pW0NASF0oT0M3PU8pW0NIMl1bQ0BIXThbQ0BIXTZDOChbQ0gzXSlbQ0gzXQ==

>  <s_epik_cmdline>  (86) 
J2VwaWtfcHl0aG9uJywgJy1waHQnLCAnMi4wJywgJy1waCcsICc3LjAnLCAnLXRuJywgJzgnLCAnLW1hJywgJzIwMCcsICctaW1hZScsICc8aW5maWxlLm1hZT4nLCAnLW9tYWUnLCAnPG91dGZpbGUubWFlPic=

>  <r_lp_tautomer_probability>  (86) 
1

>  <r_epik_Ionization_Penalty>  (86) 
4.29892e-06

>  <r_epik_Ionization_Penalty_Charging>  (86) 
0

>  <r_epik_Ionization_Penalty_Neutral>  (86) 
4.29892e-06

>  <r_epik_State_Penalty>  (86) 
-0

>  <r_epik_Charging_Adjusted_Penalty>  (86) 
0

>  <i_epik_Tot_Q>  (86) 
0

>  <i_epik_Tot_abs_Q>  (86) 
0

>  <s_epik_Chemistry_Notes>  (86) 
This compound has an ester and may undergo hydrolysis at high or low pH.

>  <s_lp_Force_Field>  (86) 
OPLS3e

>  <r_lp_Energy>  (86) 
370.441

>  <b_lp_Chiralities_Consistent>  (86) 
1

>  <s_lp_Variant>  (86) 
26:0-1

>  <s_i_glide_gridfile>  (86) 
pfpi4k_grid

>  <i_i_glide_lignum>  (86) 
1

>  <i_i_glide_rotatable_bonds>  (86) 
5

>  <r_i_docking_score>  (86) 
-2.44359

>  <r_i_glide_ligand_efficiency>  (86) 
-0.0626561

>  <r_i_glide_ligand_efficiency_sa>  (86) 
-0.21248

>  <r_i_glide_ligand_efficiency_ln>  (86) 
-0.523974

>  <r_i_glide_gscore>  (86) 
-2.44359

>  <r_i_glide_lipo>  (86) 
-0.531281

>  <r_i_glide_hbond>  (86) 
0

>  <r_i_glide_metal>  (86) 
-0

>  <r_i_glide_rewards>  (86) 
0

>  <r_i_glide_evdw>  (86) 
-29.5795

>  <r_i_glide_ecoul>  (86) 
-2.88887

>  <r_i_glide_erotb>  (86) 
0

>  <r_i_glide_esite>  (86) 
-1.06442e-06

>  <r_i_glide_emodel>  (86) 
-37.1765

>  <r_i_glide_energy>  (86) 
-32.4684

>  <r_i_glide_einternal>  (86) 
0.547643

>  <r_i_glide_intrahb_reward>  (86) 
-0

>  <i_i_glide_confnum>  (86) 
1

>  <i_i_glide_posenum>  (86) 
16

>  <r_i_glide_eff_state_penalty>  (86) 
0

>  <ligand_id>  (86) 
26

>  <original_smiles>  (86) 
C=C1C(C)CC23OOC24C2(O)CC5(C)C(=O)C6(C)C(=O)OC(CC7C(C7(C)C)C5(O)C2(O)C(O)C1C3O)C64C

>  <smiles>  (86) 
[H]OC1([H])C2([H])C(=C([H])[H])C([H])(C([H])([H])[H])C([H])([H])C13OOC31C3(O[H])C([H])([H])C4(C([H])([H])[H])C(=O)C5(C([H])([H])[H])C(=O)OC([H])(C([H])([H])C6([H])C([H])(C4(O[H])C3(O[H])C2([H])O[H])C6(C([H])([H])[H])C([H])([H])[H])C51C([H])([H])[H]

$$$$
26:0:2
     RDKit          3D

 77 84  0  0  1  0  0  0  0  0999 V2000
    6.3724   -3.2695   -1.8442 C   0  0  0  0  0  0  0  0  0  0  0  0
    5.6681   -2.9074   -0.7463 C   0  0  0  0  0  0  0  0  0  0  0  0
    4.3157   -2.1224   -0.8175 C   0  0  1  0  0  0  0  0  0  0  0  0
    3.5238   -2.3881   -2.1150 C   0  0  0  0  0  0  0  0  0  0  0  0
    3.3721   -2.2532    0.4503 C   0  0  0  0  0  0  0  0  0  0  0  0
    4.0804   -2.3240    1.8320 C   0  0  1  0  0  0  0  0  0  0  0  0
    3.6925   -1.3858    2.8410 O   0  0  0  0  0  0  0  0  0  0  0  0
    4.0792   -2.4354    3.8529 O   0  0  0  0  0  0  0  0  0  0  0  0
    3.7631   -3.4786    2.8782 C   0  0  2  0  0  0  0  0  0  0  0  0
    4.9255   -4.4669    2.7930 C   0  0  2  0  0  0  0  0  0  0  0  0
    3.8647   -4.9339    2.0847 O   0  0  0  0  0  0  0  0  0  0  0  0
    5.4983   -4.7662    4.1643 C   0  0  0  0  0  0  0  0  0  0  0  0
    5.1405   -6.1633    4.3912 C   0  0  1  0  0  0  0  0  0  0  0  0
    6.1072   -6.7693    5.4466 C   0  0  0  0  0  0  0  0  0  0  0  0
    3.6738   -6.0942    5.0493 C   0  0  0  0  0  0  0  0  0  0  0  0
    3.3512   -7.0787    5.7201 O   0  0  0  0  0  0  0  0  0  0  0  0
    2.6774   -4.8303    5.0444 C   0  0  2  0  0  0  0  0  0  0  0  0
    2.9851   -3.9231    6.2782 C   0  0  0  0  0  0  0  0  0  0  0  0
    1.2568   -5.3730    5.2962 C   0  0  0  0  0  0  0  0  0  0  0  0
    0.7718   -5.5995    6.4021 O   0  0  0  0  0  0  0  0  0  0  0  0
    0.6019   -5.4981    4.1271 O   0  0  0  0  0  0  0  0  0  0  0  0
    1.4529   -5.2660    3.0214 C   0  0  2  0  0  0  0  0  0  0  0  0
    1.7289   -6.8418    2.7206 C   0  0  0  0  0  0  0  0  0  0  0  0
    2.9431   -7.3434    1.9161 C   0  0  1  0  0  0  0  0  0  0  0  0
    4.1774   -7.7653    2.7580 C   0  0  1  0  0  0  0  0  0  0  0  0
    3.5538   -8.7174    1.7626 C   0  0  0  0  0  0  0  0  0  0  0  0
    2.7136   -9.8865    2.2439 C   0  0  0  0  0  0  0  0  0  0  0  0
    4.3655   -9.1635    0.5713 C   0  0  0  0  0  0  0  0  0  0  0  0
    5.4001   -6.7823    2.8997 C   0  0  2  0  0  0  0  0  0  0  0  0
    6.5611   -7.6066    2.8671 O   0  0  0  0  0  0  0  0  0  0  0  0
    5.5549   -5.5351    1.8194 C   0  0  1  0  0  0  0  0  0  0  0  0
    5.1605   -6.0490    0.4950 O   0  0  0  0  0  0  0  0  0  0  0  0
    6.7347   -4.5697    1.3036 C   0  0  1  0  0  0  0  0  0  0  0  0
    7.6931   -5.1866    0.4697 O   0  0  0  0  0  0  0  0  0  0  0  0
    6.1398   -3.2079    0.6790 C   0  0  1  0  0  0  0  0  0  0  0  0
    5.6287   -2.1251    1.6547 C   0  0  1  0  0  0  0  0  0  0  0  0
    6.0055   -0.8458    1.1871 O   0  0  0  0  0  0  0  0  0  0  0  0
    2.3795   -4.0737    3.6768 C   0  0  2  0  0  0  0  0  0  0  0  0
    1.3993   -2.8517    3.8128 C   0  0  0  0  0  0  0  0  0  0  0  0
    7.2976   -3.8159   -1.7443 H   0  0  0  0  0  0  0  0  0  0  0  0
    6.0251   -3.0502   -2.8429 H   0  0  0  0  0  0  0  0  0  0  0  0
    4.6089   -1.0719   -0.8668 H   0  0  0  0  0  0  0  0  0  0  0  0
    4.0637   -2.0389   -2.9976 H   0  0  0  0  0  0  0  0  0  0  0  0
    2.5766   -1.8466   -2.1000 H   0  0  0  0  0  0  0  0  0  0  0  0
    3.3000   -3.4495   -2.2457 H   0  0  0  0  0  0  0  0  0  0  0  0
    2.6692   -1.4228    0.4473 H   0  0  0  0  0  0  0  0  0  0  0  0
    2.7756   -3.1518    0.3229 H   0  0  0  0  0  0  0  0  0  0  0  0
    3.8630   -4.5448    1.2283 H   0  0  0  0  0  0  0  0  0  0  0  0
    6.5803   -4.6855    4.1218 H   0  0  0  0  0  0  0  0  0  0  0  0
    5.2480   -4.0927    4.9721 H   0  0  0  0  0  0  0  0  0  0  0  0
    7.1541   -6.5577    5.2159 H   0  0  0  0  0  0  0  0  0  0  0  0
    6.0053   -7.8557    5.5037 H   0  0  0  0  0  0  0  0  0  0  0  0
    5.9218   -6.3671    6.4442 H   0  0  0  0  0  0  0  0  0  0  0  0
    3.1835   -4.5325    7.1621 H   0  0  0  0  0  0  0  0  0  0  0  0
    2.1318   -3.2912    6.5394 H   0  0  0  0  0  0  0  0  0  0  0  0
    3.8241   -3.2434    6.1639 H   0  0  0  0  0  0  0  0  0  0  0  0
    0.9062   -4.8566    2.1753 H   0  0  0  0  0  0  0  0  0  0  0  0
    1.7243   -7.4401    3.6339 H   0  0  0  0  0  0  0  0  0  0  0  0
    0.8605   -7.2163    2.1751 H   0  0  0  0  0  0  0  0  0  0  0  0
    2.9719   -6.8640    0.9459 H   0  0  0  0  0  0  0  0  0  0  0  0
    4.0651   -8.2934    3.6896 H   0  0  0  0  0  0  0  0  0  0  0  0
    3.3443  -10.7506    2.4704 H   0  0  0  0  0  0  0  0  0  0  0  0
    2.0017  -10.1773    1.4706 H   0  0  0  0  0  0  0  0  0  0  0  0
    2.1544   -9.6293    3.1382 H   0  0  0  0  0  0  0  0  0  0  0  0
    4.9558  -10.0399    0.8439 H   0  0  0  0  0  0  0  0  0  0  0  0
    5.0621   -8.4067    0.2448 H   0  0  0  0  0  0  0  0  0  0  0  0
    3.7274   -9.4612   -0.2589 H   0  0  0  0  0  0  0  0  0  0  0  0
    7.3333   -7.0671    2.8857 H   0  0  0  0  0  0  0  0  0  0  0  0
    5.2161   -5.3632   -0.1535 H   0  0  0  0  0  0  0  0  0  0  0  0
    7.3719   -4.2573    2.1196 H   0  0  0  0  0  0  0  0  0  0  0  0
    8.3467   -4.5400    0.2641 H   0  0  0  0  0  0  0  0  0  0  0  0
    5.2491   -3.7520    0.4840 H   0  0  0  0  0  0  0  0  0  0  0  0
    6.1529   -2.2306    2.6072 H   0  0  0  0  0  0  0  0  0  0  0  0
    6.8510   -0.6082    1.5417 H   0  0  0  0  0  0  0  0  0  0  0  0
    0.3966   -3.1070    4.1479 H   0  0  0  0  0  0  0  0  0  0  0  0
    1.2659   -2.3596    2.8503 H   0  0  0  0  0  0  0  0  0  0  0  0
    1.7689   -2.1022    4.5106 H   0  0  0  0  0  0  0  0  0  0  0  0
  1  2  2  0
  1 40  1  0
  1 41  1  0
  2 35  1  0
  2  3  1  0
  3  4  1  0
  3  5  1  0
  3 42  1  6
  4 43  1  0
  4 44  1  0
  4 45  1  0
  5  6  1  0
  5 46  1  0
  5 47  1  0
  6  9  1  0
  6 36  1  0
  6  7  1  1
  7  8  1  0
  9  8  1  1
  9 38  1  0
  9 10  1  0
 10 31  1  0
 10 11  1  1
 10 12  1  0
 11 48  1  0
 12 13  1  0
 12 49  1  0
 12 50  1  0
 13 29  1  0
 13 14  1  1
 13 15  1  0
 14 51  1  0
 14 52  1  0
 14 53  1  0
 15 16  2  0
 15 17  1  0
 17 38  1  0
 17 18  1  1
 17 19  1  0
 18 54  1  0
 18 55  1  0
 18 56  1  0
 19 20  2  0
 19 21  1  0
 21 22  1  0
 22 23  1  0
 22 38  1  0
 22 57  1  6
 23 24  1  0
 23 58  1  0
 23 59  1  0
 24 26  1  0
 24 25  1  0
 24 60  1  6
 25 26  1  0
 25 29  1  0
 25 61  1  1
 26 27  1  0
 26 28  1  0
 27 62  1  0
 27 63  1  0
 27 64  1  0
 28 65  1  0
 28 66  1  0
 28 67  1  0
 29 30  1  1
 29 31  1  0
 30 68  1  0
 31 32  1  6
 31 33  1  0
 32 69  1  0
 33 34  1  0
 33 35  1  0
 33 70  1  1
 34 71  1  0
 35 36  1  0
 35 72  1  6
 36 37  1  0
 36 73  1  1
 37 74  1  0
 38 39  1  1
 39 75  1  0
 39 76  1  0
 39 77  1  0
M  END
>  <i_m_ct_stereo_status>  (87) 
1

>  <s_m_source_file>  (87) 
/var/tmp/pbs.5076255.sched01/tmpa1vw3d_c/4207j0axjo.sdf

>  <i_m_source_file_index>  (87) 
1

>  <i_lp_mmshare_version>  (87) 
48012

>  <i_f3d_flags>  (87) 
0

>  <s_epik_input>  (87) 
W0NIM11bQ0BASF0oW0NIMl0xKUMoPVtDSDJdKVtDSF0oW0NASF0yW09IXSlbQ0BIXShbT0hdKVtDQF0oW09IXSkoW0NAXTMoW09IXSlbQ0BdNChbQ0BdMTI1KU9PNSlbQ0BAXTYoW09IXSlbQ0BdKFtDSDJdMykoW0NIM10pQyg9TylbQ0BAXTcoW0NIM10pW0NAXTQoW0NIM10pW0NASF0oT0M3PU8pW0NIMl1bQ0BIXThbQ0BIXTZDOChbQ0gzXSlbQ0gzXQ==

>  <s_epik_cmdline>  (87) 
J2VwaWtfcHl0aG9uJywgJy1waHQnLCAnMi4wJywgJy1waCcsICc3LjAnLCAnLXRuJywgJzgnLCAnLW1hJywgJzIwMCcsICctaW1hZScsICc8aW5maWxlLm1hZT4nLCAnLW9tYWUnLCAnPG91dGZpbGUubWFlPic=

>  <r_lp_tautomer_probability>  (87) 
1

>  <r_epik_Ionization_Penalty>  (87) 
4.29892e-06

>  <r_epik_Ionization_Penalty_Charging>  (87) 
0

>  <r_epik_Ionization_Penalty_Neutral>  (87) 
4.29892e-06

>  <r_epik_State_Penalty>  (87) 
-0

>  <r_epik_Charging_Adjusted_Penalty>  (87) 
0

>  <i_epik_Tot_Q>  (87) 
0

>  <i_epik_Tot_abs_Q>  (87) 
0

>  <s_epik_Chemistry_Notes>  (87) 
This compound has an ester and may undergo hydrolysis at high or low pH.

>  <s_lp_Force_Field>  (87) 
OPLS3e

>  <r_lp_Energy>  (87) 
370.441

>  <b_lp_Chiralities_Consistent>  (87) 
1

>  <s_lp_Variant>  (87) 
26:0-1

>  <s_i_glide_gridfile>  (87) 
pfpi4k_grid

>  <i_i_glide_lignum>  (87) 
1

>  <i_i_glide_rotatable_bonds>  (87) 
5

>  <r_i_docking_score>  (87) 
-2.43525

>  <r_i_glide_ligand_efficiency>  (87) 
-0.0624424

>  <r_i_glide_ligand_efficiency_sa>  (87) 
-0.211755

>  <r_i_glide_ligand_efficiency_ln>  (87) 
-0.522187

>  <r_i_glide_gscore>  (87) 
-2.43525

>  <r_i_glide_lipo>  (87) 
-0.542222

>  <r_i_glide_hbond>  (87) 
0

>  <r_i_glide_metal>  (87) 
-0

>  <r_i_glide_rewards>  (87) 
0

>  <r_i_glide_evdw>  (87) 
-29.1316

>  <r_i_glide_ecoul>  (87) 
-2.90724

>  <r_i_glide_erotb>  (87) 
0

>  <r_i_glide_esite>  (87) 
-0.00036488

>  <r_i_glide_emodel>  (87) 
-36.2825

>  <r_i_glide_energy>  (87) 
-32.0388

>  <r_i_glide_einternal>  (87) 
1.35201

>  <r_i_glide_intrahb_reward>  (87) 
-0

>  <i_i_glide_confnum>  (87) 
2

>  <i_i_glide_posenum>  (87) 
12

>  <r_i_glide_eff_state_penalty>  (87) 
0

>  <ligand_id>  (87) 
26

>  <original_smiles>  (87) 
C=C1C(C)CC23OOC24C2(O)CC5(C)C(=O)C6(C)C(=O)OC(CC7C(C7(C)C)C5(O)C2(O)C(O)C1C3O)C64C

>  <smiles>  (87) 
[H]OC1([H])C2([H])C(=C([H])[H])C([H])(C([H])([H])[H])C([H])([H])C13OOC31C3(O[H])C([H])([H])C4(C([H])([H])[H])C(=O)C5(C([H])([H])[H])C(=O)OC([H])(C([H])([H])C6([H])C([H])(C4(O[H])C3(O[H])C2([H])O[H])C6(C([H])([H])[H])C([H])([H])[H])C51C([H])([H])[H]

$$$$
27:0:0
     RDKit          3D

 44 48  0  0  1  0  0  0  0  0999 V2000
    3.9876    0.0431    1.1107 C   0  0  0  0  0  0  0  0  0  0  0  0
    4.1965   -1.2847    1.0713 C   0  0  0  0  0  0  0  0  0  0  0  0
    5.5755   -1.8988    0.5796 C   0  0  2  0  0  0  0  0  0  0  0  0
    5.9439   -2.0158   -1.0219 C   0  0  1  0  0  0  0  0  0  0  0  0
    6.0703   -3.4968   -1.5378 C   0  0  0  0  0  0  0  0  0  0  0  0
    5.0984   -4.3678   -1.1154 C   0  0  0  0  0  0  0  0  0  0  0  0
    4.2299   -3.5918   -0.1912 C   0  0  1  0  0  0  0  0  0  0  0  0
    2.9657   -3.7333    0.6210 C   0  0  0  0  0  0  0  0  0  0  0  0
    3.0832   -2.3677    1.5149 C   0  0  2  0  0  0  0  0  0  0  0  0
    1.8184   -1.7644    1.6760 O   0  0  0  0  0  0  0  0  0  0  0  0
    3.5539   -2.8476    2.7132 O   0  0  0  0  0  0  0  0  0  0  0  0
    4.8446   -3.4201    2.5285 C   0  0  1  0  0  0  0  0  0  0  0  0
    4.8134   -4.8207    3.1892 C   0  0  0  0  0  0  0  0  0  0  0  0
    5.3515   -3.3198    1.0094 C   0  0  2  0  0  0  0  0  0  0  0  0
    6.7225   -4.1067    1.0996 C   0  0  0  0  0  0  0  0  0  0  0  0
    3.6509   -2.4804   -1.2664 C   0  0  1  0  0  0  0  0  0  0  0  0
    4.7379   -1.5410   -1.7741 C   0  0  2  0  0  0  0  0  0  0  0  0
    3.8186   -2.2378   -2.7719 C   0  0  0  0  0  0  0  0  0  0  0  0
    4.1833   -3.2541   -3.8576 C   0  0  0  0  0  0  0  0  0  0  0  0
    2.7959   -1.3372   -3.4310 C   0  0  0  0  0  0  0  0  0  0  0  0
    3.0539    0.4642    1.4522 H   0  0  0  0  0  0  0  0  0  0  0  0
    4.7579    0.7208    0.7888 H   0  0  0  0  0  0  0  0  0  0  0  0
    6.3939   -1.4391    1.1322 H   0  0  0  0  0  0  0  0  0  0  0  0
    6.8296   -1.4578   -1.2881 H   0  0  0  0  0  0  0  0  0  0  0  0
    6.8613   -3.7631   -2.2197 H   0  0  0  0  0  0  0  0  0  0  0  0
    4.9731   -5.4156   -1.3577 H   0  0  0  0  0  0  0  0  0  0  0  0
    2.0598   -3.7436    0.0159 H   0  0  0  0  0  0  0  0  0  0  0  0
    2.9205   -4.6267    1.2363 H   0  0  0  0  0  0  0  0  0  0  0  0
    1.5353   -1.4493    0.8148 H   0  0  0  0  0  0  0  0  0  0  0  0
    5.5149   -2.8132    3.1379 H   0  0  0  0  0  0  0  0  0  0  0  0
    5.8105   -5.2266    3.3550 H   0  0  0  0  0  0  0  0  0  0  0  0
    4.2563   -5.5561    2.6118 H   0  0  0  0  0  0  0  0  0  0  0  0
    4.3433   -4.7589    4.1711 H   0  0  0  0  0  0  0  0  0  0  0  0
    6.5883   -5.1853    0.9961 H   0  0  0  0  0  0  0  0  0  0  0  0
    7.2052   -3.9417    2.0563 H   0  0  0  0  0  0  0  0  0  0  0  0
    7.4930   -3.7935    0.3962 H   0  0  0  0  0  0  0  0  0  0  0  0
    2.7339   -1.9894   -0.9581 H   0  0  0  0  0  0  0  0  0  0  0  0
    4.5749   -0.4721   -1.6759 H   0  0  0  0  0  0  0  0  0  0  0  0
    4.5711   -2.7117   -4.7196 H   0  0  0  0  0  0  0  0  0  0  0  0
    3.2951   -3.8064   -4.1682 H   0  0  0  0  0  0  0  0  0  0  0  0
    4.9313   -3.9892   -3.5997 H   0  0  0  0  0  0  0  0  0  0  0  0
    3.1904   -0.8334   -4.3138 H   0  0  0  0  0  0  0  0  0  0  0  0
    2.4674   -0.5665   -2.7308 H   0  0  0  0  0  0  0  0  0  0  0  0
    1.9209   -1.9191   -3.7243 H   0  0  0  0  0  0  0  0  0  0  0  0
  1  2  2  0
  1 21  1  0
  1 22  1  0
  2  9  1  0
  2  3  1  0
  3 14  1  0
  3  4  1  0
  3 23  1  1
  4 17  1  0
  4  5  1  0
  4 24  1  1
  5  6  2  0
  5 25  1  0
  6  7  1  0
  6 26  1  0
  7 14  1  0
  7  8  1  1
  7 16  1  0
  8  9  1  0
  8 27  1  0
  8 28  1  0
  9 10  1  1
  9 11  1  0
 10 29  1  0
 11 12  1  0
 12 13  1  0
 12 14  1  0
 12 30  1  1
 13 31  1  0
 13 32  1  0
 13 33  1  0
 14 15  1  1
 15 34  1  0
 15 35  1  0
 15 36  1  0
 16 18  1  0
 16 17  1  0
 16 37  1  1
 17 18  1  0
 17 38  1  1
 18 19  1  0
 18 20  1  0
 19 39  1  0
 19 40  1  0
 19 41  1  0
 20 42  1  0
 20 43  1  0
 20 44  1  0
M  END
>  <i_m_ct_stereo_status>  (88) 
1

>  <s_m_source_file>  (88) 
/var/tmp/pbs.5076255.sched01/tmpa1vw3d_c/4207j0axjo.sdf

>  <i_m_source_file_index>  (88) 
2

>  <i_lp_mmshare_version>  (88) 
48012

>  <i_f3d_flags>  (88) 
2

>  <s_epik_input>  (88) 
W0NIM11bQ0BASF0xT1tDQEBdKFtDSDJdMikoW09IXSlDKD1bQ0gyXSlbQ0BASF0oW0NAQF0xKEMyMzQpW0NIM10pW0NAQEhdKFtDSF09W0NIXTMpW0NAQEhdNVtDQEhdNEM1KFtDSDNdKVtDSDNd

>  <s_epik_cmdline>  (88) 
J2VwaWtfcHl0aG9uJywgJy1waHQnLCAnMi4wJywgJy1waCcsICc3LjAnLCAnLXRuJywgJzgnLCAnLW1hJywgJzIwMCcsICctaW1hZScsICc8aW5maWxlLm1hZT4nLCAnLW9tYWUnLCAnPG91dGZpbGUubWFlPic=

>  <r_lp_tautomer_probability>  (88) 
1

>  <r_epik_Ionization_Penalty>  (88) 
8.23318e-07

>  <r_epik_Ionization_Penalty_Charging>  (88) 
0

>  <r_epik_Ionization_Penalty_Neutral>  (88) 
8.23318e-07

>  <r_epik_State_Penalty>  (88) 
-0

>  <r_epik_Charging_Adjusted_Penalty>  (88) 
0

>  <i_epik_Tot_Q>  (88) 
0

>  <i_epik_Tot_abs_Q>  (88) 
0

>  <s_lp_Force_Field>  (88) 
OPLS3e

>  <r_lp_Energy>  (88) 
219.888

>  <b_lp_Chiralities_Consistent>  (88) 
0

>  <s_lp_Variant>  (88) 
27:0-1

>  <s_i_glide_gridfile>  (88) 
pfpi4k_grid

>  <i_i_glide_lignum>  (88) 
2

>  <i_i_glide_rotatable_bonds>  (88) 
1

>  <r_i_docking_score>  (88) 
-3.58021

>  <r_i_glide_ligand_efficiency>  (88) 
-0.17901

>  <r_i_glide_ligand_efficiency_sa>  (88) 
-0.485909

>  <r_i_glide_ligand_efficiency_ln>  (88) 
-0.896007

>  <r_i_glide_gscore>  (88) 
-3.58021

>  <r_i_glide_lipo>  (88) 
-0.704466

>  <r_i_glide_hbond>  (88) 
0

>  <r_i_glide_metal>  (88) 
-0

>  <r_i_glide_rewards>  (88) 
-1.55194

>  <r_i_glide_evdw>  (88) 
-20.9213

>  <r_i_glide_ecoul>  (88) 
-1.75929

>  <r_i_glide_erotb>  (88) 
0

>  <r_i_glide_esite>  (88) 
-0.0138396

>  <r_i_glide_emodel>  (88) 
-27.0057

>  <r_i_glide_energy>  (88) 
-22.6806

>  <r_i_glide_einternal>  (88) 
1.58015

>  <r_i_glide_intrahb_reward>  (88) 
-0

>  <i_i_glide_confnum>  (88) 
2

>  <i_i_glide_posenum>  (88) 
4

>  <r_i_glide_eff_state_penalty>  (88) 
0

>  <ligand_id>  (88) 
27

>  <original_smiles>  (88) 
C=C1C2C3C=CC4(CC1(O)OC(C)C24C)C1C3C1(C)C

>  <smiles>  (88) 
[H]OC12OC([H])(C([H])([H])[H])C3(C([H])([H])[H])C([H])(C1=C([H])[H])C1([H])C([H])=C([H])C3(C2([H])[H])C2([H])C1([H])C2(C([H])([H])[H])C([H])([H])[H]

$$$$
28:0:0
     RDKit          3D

 55 60  0  0  1  0  0  0  0  0999 V2000
    2.3478   -9.3633    1.5884 C   0  0  0  0  0  0  0  0  0  0  0  0
    2.5893   -8.7342    2.9859 C   0  0  2  0  0  0  0  0  0  0  0  0
    3.1950   -9.8411    3.8935 C   0  0  0  0  0  0  0  0  0  0  0  0
    2.2457  -11.0381    4.1377 C   0  0  0  0  0  0  0  0  0  0  0  0
    0.8958  -10.5885    4.7162 C   0  0  1  0  0  0  0  0  0  0  0  0
    1.1031  -10.2178    6.0796 O   0  0  0  0  0  0  0  0  0  0  0  0
    0.2603   -9.4360    3.8886 C   0  0  1  0  0  0  0  0  0  0  0  0
   -0.8900   -9.0120    4.5970 O   0  0  0  0  0  0  0  0  0  0  0  0
    1.2446   -8.2483    3.6152 C   0  0  2  0  0  0  0  0  0  0  0  0
    0.6298   -7.0551    2.8396 C   0  0  0  0  0  0  0  0  0  0  0  0
   -0.5809   -6.8317    2.8101 O   0  0  0  0  0  0  0  0  0  0  0  0
    1.5078   -6.1621    2.2927 O   0  0  0  0  0  0  0  0  0  0  0  0
    2.8406   -6.4947    1.9047 C   0  0  0  0  0  0  0  0  0  0  0  0
    3.5582   -7.5034    2.8264 C   0  0  1  0  0  0  0  0  0  0  0  0
    4.1263   -6.8984    4.1666 C   0  0  2  0  0  0  0  0  0  0  0  0
    4.2507   -5.3224    4.3500 C   0  0  1  0  0  0  0  0  0  0  0  0
    3.3444   -4.8389    5.3106 O   0  0  0  0  0  0  0  0  0  0  0  0
    5.7174   -4.9588    4.7459 C   0  0  0  0  0  0  0  0  0  0  0  0
    6.3488   -6.1681    4.1072 C   0  0  1  0  0  0  0  0  0  0  0  0
    7.7907   -6.6814    4.0712 C   0  0  1  0  0  0  0  0  0  0  0  0
    8.6082   -6.2213    2.8767 C   0  0  0  0  0  0  0  0  0  0  0  0
    8.1566   -7.6258    2.8684 C   0  0  2  0  0  0  0  0  0  0  0  0
    6.8398   -8.1702    2.6789 O   0  0  0  0  0  0  0  0  0  0  0  0
    6.4998   -8.3954    4.0150 C   0  0  1  0  0  0  0  0  0  0  0  0
    7.6704   -7.9833    4.6526 O   0  0  0  0  0  0  0  0  0  0  0  0
    5.5561   -7.3195    4.6124 C   0  0  2  0  0  0  0  0  0  0  0  0
    5.5428   -7.5341    6.1620 C   0  0  0  0  0  0  0  0  0  0  0  0
    3.2871   -9.6640    1.1180 H   0  0  0  0  0  0  0  0  0  0  0  0
    1.8275   -8.7004    0.8950 H   0  0  0  0  0  0  0  0  0  0  0  0
    1.7135  -10.2441    1.6341 H   0  0  0  0  0  0  0  0  0  0  0  0
    4.1272  -10.2120    3.4613 H   0  0  0  0  0  0  0  0  0  0  0  0
    3.4486   -9.4306    4.8712 H   0  0  0  0  0  0  0  0  0  0  0  0
    2.0779  -11.5975    3.2165 H   0  0  0  0  0  0  0  0  0  0  0  0
    2.7099  -11.7589    4.8160 H   0  0  0  0  0  0  0  0  0  0  0  0
    0.2151  -11.4430    4.7186 H   0  0  0  0  0  0  0  0  0  0  0  0
    1.2176  -11.0064    6.6096 H   0  0  0  0  0  0  0  0  0  0  0  0
   -0.0909   -9.8410    2.9392 H   0  0  0  0  0  0  0  0  0  0  0  0
   -1.4138   -9.7865    4.8482 H   0  0  0  0  0  0  0  0  0  0  0  0
    1.4509   -7.8329    4.5967 H   0  0  0  0  0  0  0  0  0  0  0  0
    2.8092   -6.8884    0.8882 H   0  0  0  0  0  0  0  0  0  0  0  0
    3.3995   -5.5736    1.7689 H   0  0  0  0  0  0  0  0  0  0  0  0
    4.4242   -7.8405    2.2490 H   0  0  0  0  0  0  0  0  0  0  0  0
    3.4352   -7.2172    4.9450 H   0  0  0  0  0  0  0  0  0  0  0  0
    4.0679   -4.7757    3.4298 H   0  0  0  0  0  0  0  0  0  0  0  0
    2.4734   -5.0110    4.9827 H   0  0  0  0  0  0  0  0  0  0  0  0
    6.0404   -4.0240    4.3018 H   0  0  0  0  0  0  0  0  0  0  0  0
    5.8832   -4.9069    5.8225 H   0  0  0  0  0  0  0  0  0  0  0  0
    6.1107   -6.0076    3.0483 H   0  0  0  0  0  0  0  0  0  0  0  0
    8.1604   -5.5400    2.1517 H   0  0  0  0  0  0  0  0  0  0  0  0
    9.6753   -6.0749    3.0343 H   0  0  0  0  0  0  0  0  0  0  0  0
    8.9468   -8.3825    2.9401 H   0  0  0  0  0  0  0  0  0  0  0  0
    6.2420   -9.4341    4.2322 H   0  0  0  0  0  0  0  0  0  0  0  0
    6.5289   -7.4928    6.6328 H   0  0  0  0  0  0  0  0  0  0  0  0
    5.1140   -8.5110    6.3951 H   0  0  0  0  0  0  0  0  0  0  0  0
    4.9306   -6.7925    6.6792 H   0  0  0  0  0  0  0  0  0  0  0  0
  2  1  1  6
  1 28  1  0
  1 29  1  0
  1 30  1  0
  2  9  1  0
  2 14  1  0
  2  3  1  0
  3  4  1  0
  3 31  1  0
  3 32  1  0
  4  5  1  0
  4 33  1  0
  4 34  1  0
  5  6  1  0
  5  7  1  0
  5 35  1  1
  6 36  1  0
  7  8  1  0
  7  9  1  0
  7 37  1  6
  8 38  1  0
  9 10  1  0
  9 39  1  1
 10 11  2  0
 10 12  1  0
 12 13  1  0
 13 14  1  0
 13 40  1  0
 13 41  1  0
 14 15  1  0
 14 42  1  6
 15 26  1  0
 15 16  1  0
 15 43  1  1
 16 17  1  0
 16 18  1  0
 16 44  1  6
 17 45  1  0
 18 19  1  0
 18 46  1  0
 18 47  1  0
 19 26  1  0
 19 20  1  0
 19 48  1  6
 20 22  1  0
 20 25  1  0
 20 21  1  1
 21 22  1  0
 21 49  1  0
 21 50  1  0
 22 23  1  0
 22 51  1  1
 23 24  1  0
 24 25  1  0
 24 26  1  0
 24 52  1  6
 26 27  1  1
 27 53  1  0
 27 54  1  0
 27 55  1  0
M  END
>  <i_m_ct_stereo_status>  (89) 
1

>  <s_m_source_file>  (89) 
/var/tmp/pbs.5076255.sched01/tmpa1vw3d_c/4207j0axjo.sdf

>  <i_m_source_file_index>  (89) 
3

>  <i_lp_mmshare_version>  (89) 
48012

>  <i_f3d_flags>  (89) 
0

>  <s_epik_input>  (89) 
W0NIMl0xW0NIMl1bQ0BASF0oW09IXSlbQ0BASF0oW09IXSlbQ0BASF0oW0NAXTEyW0NIM10pQyg9TylPW0NIMl1bQ0BIXTJbQ0BIXShbQ0BASF0oW09IXSlbQ0gyXTMpW0NAQF0oW0NAQEhdM1tDQF00NTYpKFtDSDNdKVtDQEhdKE82KU9bQ0BIXTVbQ0gyXTQ=

>  <s_epik_cmdline>  (89) 
J2VwaWtfcHl0aG9uJywgJy1waHQnLCAnMi4wJywgJy1waCcsICc3LjAnLCAnLXRuJywgJzgnLCAnLW1hJywgJzIwMCcsICctaW1hZScsICc8aW5maWxlLm1hZT4nLCAnLW9tYWUnLCAnPG91dGZpbGUubWFlPic=

>  <r_lp_tautomer_probability>  (89) 
1

>  <r_epik_Ionization_Penalty>  (89) 
3.02225e-07

>  <r_epik_Ionization_Penalty_Charging>  (89) 
0

>  <r_epik_Ionization_Penalty_Neutral>  (89) 
3.02225e-07

>  <r_epik_State_Penalty>  (89) 
-0

>  <r_epik_Charging_Adjusted_Penalty>  (89) 
0

>  <i_epik_Tot_Q>  (89) 
0

>  <i_epik_Tot_abs_Q>  (89) 
0

>  <s_epik_Chemistry_Notes>  (89) 
This compound has an ester and may undergo hydrolysis at high or low pH. This compound contains an acetal/aminal-like group ( X-CH(R)-Y where X, Y are N, S, or O) that may be acid/base labile, releasing an aldehyde.

>  <s_lp_Force_Field>  (89) 
OPLS3e

>  <r_lp_Energy>  (89) 
110.65

>  <b_lp_Chiralities_Consistent>  (89) 
1

>  <s_lp_Variant>  (89) 
28:0-1

>  <s_i_glide_gridfile>  (89) 
pfpi4k_grid

>  <i_i_glide_lignum>  (89) 
3

>  <i_i_glide_rotatable_bonds>  (89) 
4

>  <r_i_docking_score>  (89) 
-3.84854

>  <r_i_glide_ligand_efficiency>  (89) 
-0.142539

>  <r_i_glide_ligand_efficiency_sa>  (89) 
-0.427616

>  <r_i_glide_ligand_efficiency_ln>  (89) 
-0.895877

>  <r_i_glide_gscore>  (89) 
-3.84854

>  <r_i_glide_lipo>  (89) 
-0.0745486

>  <r_i_glide_hbond>  (89) 
-0.152425

>  <r_i_glide_metal>  (89) 
-0

>  <r_i_glide_rewards>  (89) 
-0.820764

>  <r_i_glide_evdw>  (89) 
-17.6565

>  <r_i_glide_ecoul>  (89) 
-13.3753

>  <r_i_glide_erotb>  (89) 
0.134047

>  <r_i_glide_esite>  (89) 
-0.0457393

>  <r_i_glide_emodel>  (89) 
-38.377

>  <r_i_glide_energy>  (89) 
-31.0317

>  <r_i_glide_einternal>  (89) 
4.53021

>  <r_i_glide_intrahb_reward>  (89) 
-0

>  <i_i_glide_confnum>  (89) 
4

>  <i_i_glide_posenum>  (89) 
29

>  <r_i_glide_eff_state_penalty>  (89) 
0

>  <ligand_id>  (89) 
28

>  <original_smiles>  (89) 
CC12CCC(O)C(O)C1C(=O)OCC2C1C(O)CC2C34CC3OC(O4)C12C

>  <smiles>  (89) 
[H]OC1([H])C([H])([H])C([H])([H])C2(C([H])([H])[H])C([H])(C(=O)OC([H])([H])C2([H])C2([H])C([H])(O[H])C([H])([H])C3([H])C45OC([H])(OC4([H])C5([H])[H])C23C([H])([H])[H])C1([H])O[H]

$$$$
28:0:1
     RDKit          3D

 55 60  0  0  1  0  0  0  0  0999 V2000
    4.7746   -6.9508    2.8660 C   0  0  0  0  0  0  0  0  0  0  0  0
    4.4342   -5.4295    2.9422 C   0  0  2  0  0  0  0  0  0  0  0  0
    5.0796   -4.8577    4.2275 C   0  0  0  0  0  0  0  0  0  0  0  0
    4.4693   -5.4513    5.5176 C   0  0  0  0  0  0  0  0  0  0  0  0
    2.9364   -5.2906    5.5690 C   0  0  1  0  0  0  0  0  0  0  0  0
    2.6304   -3.9171    5.7840 O   0  0  0  0  0  0  0  0  0  0  0  0
    2.2364   -5.8139    4.2934 C   0  0  1  0  0  0  0  0  0  0  0  0
    0.8739   -5.4283    4.4223 O   0  0  0  0  0  0  0  0  0  0  0  0
    2.8873   -5.2213    3.0167 C   0  0  2  0  0  0  0  0  0  0  0  0
    2.1781   -5.6194    1.7061 C   0  0  0  0  0  0  0  0  0  0  0  0
    0.9840   -5.9452    1.6769 O   0  0  0  0  0  0  0  0  0  0  0  0
    2.8417   -5.4438    0.5655 O   0  0  0  0  0  0  0  0  0  0  0  0
    4.2572   -5.4038    0.4691 C   0  0  0  0  0  0  0  0  0  0  0  0
    4.9842   -4.7269    1.6475 C   0  0  1  0  0  0  0  0  0  0  0  0
    5.0721   -3.1509    1.5938 C   0  0  2  0  0  0  0  0  0  0  0  0
    3.7513   -2.2779    1.7454 C   0  0  1  0  0  0  0  0  0  0  0  0
    3.6787   -1.6693    3.0155 O   0  0  0  0  0  0  0  0  0  0  0  0
    3.6813   -1.2145    0.5989 C   0  0  0  0  0  0  0  0  0  0  0  0
    4.4973   -2.0255   -0.3806 C   0  0  1  0  0  0  0  0  0  0  0  0
    4.9969   -1.7279   -1.7890 C   0  0  1  0  0  0  0  0  0  0  0  0
    4.0728   -2.2224   -2.8879 C   0  0  0  0  0  0  0  0  0  0  0  0
    5.3341   -2.9646   -2.7002 C   0  0  2  0  0  0  0  0  0  0  0  0
    5.7374   -3.8520   -1.6445 O   0  0  0  0  0  0  0  0  0  0  0  0
    6.4794   -2.9847   -0.8493 C   0  0  1  0  0  0  0  0  0  0  0  0
    6.4267   -1.8525   -1.6351 O   0  0  0  0  0  0  0  0  0  0  0  0
    5.7109   -2.4205    0.3752 C   0  0  2  0  0  0  0  0  0  0  0  0
    6.5801   -1.2396    0.9180 C   0  0  0  0  0  0  0  0  0  0  0  0
    5.8502   -7.1131    2.7701 H   0  0  0  0  0  0  0  0  0  0  0  0
    4.2941   -7.4614    2.0337 H   0  0  0  0  0  0  0  0  0  0  0  0
    4.4342   -7.5055    3.7366 H   0  0  0  0  0  0  0  0  0  0  0  0
    6.1595   -5.0251    4.2216 H   0  0  0  0  0  0  0  0  0  0  0  0
    4.9422   -3.7767    4.2702 H   0  0  0  0  0  0  0  0  0  0  0  0
    4.7170   -6.5090    5.5978 H   0  0  0  0  0  0  0  0  0  0  0  0
    4.9219   -4.9912    6.4002 H   0  0  0  0  0  0  0  0  0  0  0  0
    2.5478   -5.8520    6.4192 H   0  0  0  0  0  0  0  0  0  0  0  0
    3.0777   -3.3953    5.1313 H   0  0  0  0  0  0  0  0  0  0  0  0
    2.2815   -6.9059    4.2515 H   0  0  0  0  0  0  0  0  0  0  0  0
    0.8526   -4.4877    4.5533 H   0  0  0  0  0  0  0  0  0  0  0  0
    2.7094   -4.1596    3.1346 H   0  0  0  0  0  0  0  0  0  0  0  0
    4.6665   -6.4104    0.3017 H   0  0  0  0  0  0  0  0  0  0  0  0
    4.3930   -4.9075   -0.4680 H   0  0  0  0  0  0  0  0  0  0  0  0
    6.0323   -5.0267    1.5611 H   0  0  0  0  0  0  0  0  0  0  0  0
    5.7163   -2.9142    2.4372 H   0  0  0  0  0  0  0  0  0  0  0  0
    2.8581   -2.8713    1.5724 H   0  0  0  0  0  0  0  0  0  0  0  0
    2.8984   -1.1320    3.0452 H   0  0  0  0  0  0  0  0  0  0  0  0
    2.6514   -1.0528    0.2819 H   0  0  0  0  0  0  0  0  0  0  0  0
    4.1152   -0.2428    0.8511 H   0  0  0  0  0  0  0  0  0  0  0  0
    3.8602   -2.9046   -0.5223 H   0  0  0  0  0  0  0  0  0  0  0  0
    3.1345   -2.7118   -2.6112 H   0  0  0  0  0  0  0  0  0  0  0  0
    4.0049   -1.6086   -3.7834 H   0  0  0  0  0  0  0  0  0  0  0  0
    6.0602   -2.8753   -3.5203 H   0  0  0  0  0  0  0  0  0  0  0  0
    7.5008   -3.3307   -0.6500 H   0  0  0  0  0  0  0  0  0  0  0  0
    6.7751   -0.4500    0.1907 H   0  0  0  0  0  0  0  0  0  0  0  0
    7.5420   -1.6259    1.2501 H   0  0  0  0  0  0  0  0  0  0  0  0
    6.1342   -0.7466    1.7836 H   0  0  0  0  0  0  0  0  0  0  0  0
  2  1  1  6
  1 28  1  0
  1 29  1  0
  1 30  1  0
  2  9  1  0
  2 14  1  0
  2  3  1  0
  3  4  1  0
  3 31  1  0
  3 32  1  0
  4  5  1  0
  4 33  1  0
  4 34  1  0
  5  6  1  0
  5  7  1  0
  5 35  1  1
  6 36  1  0
  7  8  1  0
  7  9  1  0
  7 37  1  6
  8 38  1  0
  9 10  1  0
  9 39  1  1
 10 11  2  0
 10 12  1  0
 12 13  1  0
 13 14  1  0
 13 40  1  0
 13 41  1  0
 14 15  1  0
 14 42  1  6
 15 26  1  0
 15 16  1  0
 15 43  1  1
 16 17  1  0
 16 18  1  0
 16 44  1  6
 17 45  1  0
 18 19  1  0
 18 46  1  0
 18 47  1  0
 19 26  1  0
 19 20  1  0
 19 48  1  6
 20 22  1  0
 20 25  1  0
 20 21  1  6
 21 22  1  0
 21 49  1  0
 21 50  1  0
 22 23  1  0
 22 51  1  6
 23 24  1  0
 24 25  1  0
 24 26  1  0
 24 52  1  1
 26 27  1  1
 27 53  1  0
 27 54  1  0
 27 55  1  0
M  END
>  <i_m_ct_stereo_status>  (90) 
1

>  <s_m_source_file>  (90) 
/var/tmp/pbs.5076255.sched01/tmpa1vw3d_c/4207j0axjo.sdf

>  <i_m_source_file_index>  (90) 
3

>  <i_lp_mmshare_version>  (90) 
48012

>  <i_f3d_flags>  (90) 
0

>  <s_epik_input>  (90) 
W0NIMl0xW0NIMl1bQ0BASF0oW09IXSlbQ0BASF0oW09IXSlbQ0BASF0oW0NAXTEyW0NIM10pQyg9TylPW0NIMl1bQ0BIXTJbQ0BIXShbQ0BASF0oW09IXSlbQ0gyXTMpW0NAQF0oW0NAQEhdM1tDQF00NTYpKFtDSDNdKVtDQEhdKE82KU9bQ0BIXTVbQ0gyXTQ=

>  <s_epik_cmdline>  (90) 
J2VwaWtfcHl0aG9uJywgJy1waHQnLCAnMi4wJywgJy1waCcsICc3LjAnLCAnLXRuJywgJzgnLCAnLW1hJywgJzIwMCcsICctaW1hZScsICc8aW5maWxlLm1hZT4nLCAnLW9tYWUnLCAnPG91dGZpbGUubWFlPic=

>  <r_lp_tautomer_probability>  (90) 
1

>  <r_epik_Ionization_Penalty>  (90) 
3.02225e-07

>  <r_epik_Ionization_Penalty_Charging>  (90) 
0

>  <r_epik_Ionization_Penalty_Neutral>  (90) 
3.02225e-07

>  <r_epik_State_Penalty>  (90) 
-0

>  <r_epik_Charging_Adjusted_Penalty>  (90) 
0

>  <i_epik_Tot_Q>  (90) 
0

>  <i_epik_Tot_abs_Q>  (90) 
0

>  <s_epik_Chemistry_Notes>  (90) 
This compound has an ester and may undergo hydrolysis at high or low pH. This compound contains an acetal/aminal-like group ( X-CH(R)-Y where X, Y are N, S, or O) that may be acid/base labile, releasing an aldehyde.

>  <s_lp_Force_Field>  (90) 
OPLS3e

>  <r_lp_Energy>  (90) 
110.65

>  <b_lp_Chiralities_Consistent>  (90) 
1

>  <s_lp_Variant>  (90) 
28:0-1

>  <s_i_glide_gridfile>  (90) 
pfpi4k_grid

>  <i_i_glide_lignum>  (90) 
3

>  <i_i_glide_rotatable_bonds>  (90) 
4

>  <r_i_docking_score>  (90) 
-3.6111

>  <r_i_glide_ligand_efficiency>  (90) 
-0.133744

>  <r_i_glide_ligand_efficiency_sa>  (90) 
-0.401233

>  <r_i_glide_ligand_efficiency_ln>  (90) 
-0.840604

>  <r_i_glide_gscore>  (90) 
-3.6111

>  <r_i_glide_lipo>  (90) 
-0.50465

>  <r_i_glide_hbond>  (90) 
-0.293445

>  <r_i_glide_metal>  (90) 
-0

>  <r_i_glide_rewards>  (90) 
-0.859413

>  <r_i_glide_evdw>  (90) 
-24.9885

>  <r_i_glide_ecoul>  (90) 
-5.40264

>  <r_i_glide_erotb>  (90) 
0.134047

>  <r_i_glide_esite>  (90) 
-0.0278196

>  <r_i_glide_emodel>  (90) 
-38.0854

>  <r_i_glide_energy>  (90) 
-30.3911

>  <r_i_glide_einternal>  (90) 
0.949259

>  <r_i_glide_intrahb_reward>  (90) 
-0

>  <i_i_glide_confnum>  (90) 
4

>  <i_i_glide_posenum>  (90) 
13

>  <r_i_glide_eff_state_penalty>  (90) 
0

>  <ligand_id>  (90) 
28

>  <original_smiles>  (90) 
CC12CCC(O)C(O)C1C(=O)OCC2C1C(O)CC2C34CC3OC(O4)C12C

>  <smiles>  (90) 
[H]OC1([H])C([H])([H])C([H])([H])C2(C([H])([H])[H])C([H])(C(=O)OC([H])([H])C2([H])C2([H])C([H])(O[H])C([H])([H])C3([H])C45OC([H])(OC4([H])C5([H])[H])C23C([H])([H])[H])C1([H])O[H]

$$$$
28:0:2
     RDKit          3D

 55 60  0  0  1  0  0  0  0  0999 V2000
    4.5550   -7.4927    1.8967 C   0  0  0  0  0  0  0  0  0  0  0  0
    4.3192   -6.0272    2.3918 C   0  0  2  0  0  0  0  0  0  0  0  0
    5.2924   -5.7688    3.5769 C   0  0  0  0  0  0  0  0  0  0  0  0
    5.0176   -6.6609    4.8062 C   0  0  0  0  0  0  0  0  0  0  0  0
    3.5634   -6.5265    5.2875 C   0  0  1  0  0  0  0  0  0  0  0  0
    3.4357   -5.2534    5.9030 O   0  0  0  0  0  0  0  0  0  0  0  0
    2.5339   -6.7119    4.1425 C   0  0  1  0  0  0  0  0  0  0  0  0
    1.2584   -6.4243    4.6920 O   0  0  0  0  0  0  0  0  0  0  0  0
    2.8546   -5.8391    2.8903 C   0  0  2  0  0  0  0  0  0  0  0  0
    1.8144   -5.9510    1.7418 C   0  0  0  0  0  0  0  0  0  0  0  0
    0.6433   -6.2786    1.9357 O   0  0  0  0  0  0  0  0  0  0  0  0
    2.2033   -5.5099    0.5198 O   0  0  0  0  0  0  0  0  0  0  0  0
    3.5569   -5.4054    0.0993 C   0  0  0  0  0  0  0  0  0  0  0  0
    4.5729   -5.0406    1.1901 C   0  0  1  0  0  0  0  0  0  0  0  0
    4.7102   -3.4989    1.4867 C   0  0  2  0  0  0  0  0  0  0  0  0
    3.4381   -2.6732    1.9553 C   0  0  1  0  0  0  0  0  0  0  0  0
    3.5129   -2.2996    3.3133 O   0  0  0  0  0  0  0  0  0  0  0  0
    3.2861   -1.3923    1.0645 C   0  0  0  0  0  0  0  0  0  0  0  0
    4.0013   -1.9559   -0.1381 C   0  0  1  0  0  0  0  0  0  0  0  0
    4.3919   -1.3775   -1.4985 C   0  0  1  0  0  0  0  0  0  0  0  0
    3.3660   -1.6054   -2.5981 C   0  0  0  0  0  0  0  0  0  0  0  0
    4.5930   -2.4169   -2.6647 C   0  0  2  0  0  0  0  0  0  0  0  0
    5.0206   -3.5132   -1.8465 O   0  0  0  0  0  0  0  0  0  0  0  0
    5.8811   -2.8474   -0.9818 C   0  0  1  0  0  0  0  0  0  0  0  0
    5.8167   -1.5551   -1.5128 O   0  0  0  0  0  0  0  0  0  0  0  0
    5.2608   -2.5294    0.3997 C   0  0  2  0  0  0  0  0  0  0  0  0
    6.2340   -1.5230    1.1010 C   0  0  0  0  0  0  0  0  0  0  0  0
    5.5647   -7.6203    1.5016 H   0  0  0  0  0  0  0  0  0  0  0  0
    3.8597   -7.8064    1.1196 H   0  0  0  0  0  0  0  0  0  0  0  0
    4.4263   -8.2351    2.6819 H   0  0  0  0  0  0  0  0  0  0  0  0
    6.3280   -5.8965    3.2558 H   0  0  0  0  0  0  0  0  0  0  0  0
    5.2025   -4.7391    3.9238 H   0  0  0  0  0  0  0  0  0  0  0  0
    5.2319   -7.7051    4.5843 H   0  0  0  0  0  0  0  0  0  0  0  0
    5.7043   -6.3982    5.6131 H   0  0  0  0  0  0  0  0  0  0  0  0
    3.3748   -7.2746    6.0605 H   0  0  0  0  0  0  0  0  0  0  0  0
    4.0285   -5.2169    6.6365 H   0  0  0  0  0  0  0  0  0  0  0  0
    2.5213   -7.7595    3.8459 H   0  0  0  0  0  0  0  0  0  0  0  0
    1.0530   -7.0832    5.3388 H   0  0  0  0  0  0  0  0  0  0  0  0
    2.7640   -4.8188    3.2478 H   0  0  0  0  0  0  0  0  0  0  0  0
    3.8582   -6.3447   -0.3641 H   0  0  0  0  0  0  0  0  0  0  0  0
    3.5636   -4.7102   -0.7212 H   0  0  0  0  0  0  0  0  0  0  0  0
    5.5554   -5.3056    0.7891 H   0  0  0  0  0  0  0  0  0  0  0  0
    5.4431   -3.4482    2.2882 H   0  0  0  0  0  0  0  0  0  0  0  0
    2.5305   -3.2544    1.8107 H   0  0  0  0  0  0  0  0  0  0  0  0
    2.7117   -1.8562    3.5417 H   0  0  0  0  0  0  0  0  0  0  0  0
    2.2413   -1.1475    0.8772 H   0  0  0  0  0  0  0  0  0  0  0  0
    3.7774   -0.5107    1.4742 H   0  0  0  0  0  0  0  0  0  0  0  0
    3.3047   -2.7486   -0.4112 H   0  0  0  0  0  0  0  0  0  0  0  0
    2.4313   -2.1096   -2.3530 H   0  0  0  0  0  0  0  0  0  0  0  0
    3.2664   -0.8191   -3.3428 H   0  0  0  0  0  0  0  0  0  0  0  0
    5.2529   -2.2246   -3.5148 H   0  0  0  0  0  0  0  0  0  0  0  0
    6.8861   -3.2713   -0.9660 H   0  0  0  0  0  0  0  0  0  0  0  0
    6.4137   -0.6051    0.5382 H   0  0  0  0  0  0  0  0  0  0  0  0
    7.2022   -1.9997    1.2615 H   0  0  0  0  0  0  0  0  0  0  0  0
    5.8783   -1.2090    2.0836 H   0  0  0  0  0  0  0  0  0  0  0  0
  2  1  1  6
  1 28  1  0
  1 29  1  0
  1 30  1  0
  2  9  1  0
  2 14  1  0
  2  3  1  0
  3  4  1  0
  3 31  1  0
  3 32  1  0
  4  5  1  0
  4 33  1  0
  4 34  1  0
  5  6  1  0
  5  7  1  0
  5 35  1  1
  6 36  1  0
  7  8  1  0
  7  9  1  0
  7 37  1  6
  8 38  1  0
  9 10  1  0
  9 39  1  1
 10 11  2  0
 10 12  1  0
 12 13  1  0
 13 14  1  0
 13 40  1  0
 13 41  1  0
 14 15  1  0
 14 42  1  6
 15 26  1  0
 15 16  1  0
 15 43  1  1
 16 17  1  0
 16 18  1  0
 16 44  1  1
 17 45  1  0
 18 19  1  0
 18 46  1  0
 18 47  1  0
 19 26  1  0
 19 20  1  0
 19 48  1  6
 20 22  1  0
 20 25  1  0
 20 21  1  6
 21 22  1  0
 21 49  1  0
 21 50  1  0
 22 23  1  0
 22 51  1  6
 23 24  1  0
 24 25  1  0
 24 26  1  0
 24 52  1  1
 26 27  1  1
 27 53  1  0
 27 54  1  0
 27 55  1  0
M  END
>  <i_m_ct_stereo_status>  (91) 
1

>  <s_m_source_file>  (91) 
/var/tmp/pbs.5076255.sched01/tmpa1vw3d_c/4207j0axjo.sdf

>  <i_m_source_file_index>  (91) 
3

>  <i_lp_mmshare_version>  (91) 
48012

>  <i_f3d_flags>  (91) 
0

>  <s_epik_input>  (91) 
W0NIMl0xW0NIMl1bQ0BASF0oW09IXSlbQ0BASF0oW09IXSlbQ0BASF0oW0NAXTEyW0NIM10pQyg9TylPW0NIMl1bQ0BIXTJbQ0BIXShbQ0BASF0oW09IXSlbQ0gyXTMpW0NAQF0oW0NAQEhdM1tDQF00NTYpKFtDSDNdKVtDQEhdKE82KU9bQ0BIXTVbQ0gyXTQ=

>  <s_epik_cmdline>  (91) 
J2VwaWtfcHl0aG9uJywgJy1waHQnLCAnMi4wJywgJy1waCcsICc3LjAnLCAnLXRuJywgJzgnLCAnLW1hJywgJzIwMCcsICctaW1hZScsICc8aW5maWxlLm1hZT4nLCAnLW9tYWUnLCAnPG91dGZpbGUubWFlPic=

>  <r_lp_tautomer_probability>  (91) 
1

>  <r_epik_Ionization_Penalty>  (91) 
3.02225e-07

>  <r_epik_Ionization_Penalty_Charging>  (91) 
0

>  <r_epik_Ionization_Penalty_Neutral>  (91) 
3.02225e-07

>  <r_epik_State_Penalty>  (91) 
-0

>  <r_epik_Charging_Adjusted_Penalty>  (91) 
0

>  <i_epik_Tot_Q>  (91) 
0

>  <i_epik_Tot_abs_Q>  (91) 
0

>  <s_epik_Chemistry_Notes>  (91) 
This compound has an ester and may undergo hydrolysis at high or low pH. This compound contains an acetal/aminal-like group ( X-CH(R)-Y where X, Y are N, S, or O) that may be acid/base labile, releasing an aldehyde.

>  <s_lp_Force_Field>  (91) 
OPLS3e

>  <r_lp_Energy>  (91) 
110.65

>  <b_lp_Chiralities_Consistent>  (91) 
1

>  <s_lp_Variant>  (91) 
28:0-1

>  <s_i_glide_gridfile>  (91) 
pfpi4k_grid

>  <i_i_glide_lignum>  (91) 
3

>  <i_i_glide_rotatable_bonds>  (91) 
4

>  <r_i_docking_score>  (91) 
-3.2656

>  <r_i_glide_ligand_efficiency>  (91) 
-0.120948

>  <r_i_glide_ligand_efficiency_sa>  (91) 
-0.362844

>  <r_i_glide_ligand_efficiency_ln>  (91) 
-0.760177

>  <r_i_glide_gscore>  (91) 
-3.2656

>  <r_i_glide_lipo>  (91) 
-0.416243

>  <r_i_glide_hbond>  (91) 
-0.180987

>  <r_i_glide_metal>  (91) 
-0

>  <r_i_glide_rewards>  (91) 
-0.823356

>  <r_i_glide_evdw>  (91) 
-27.1069

>  <r_i_glide_ecoul>  (91) 
-3.863

>  <r_i_glide_erotb>  (91) 
0.134047

>  <r_i_glide_esite>  (91) 
-0.04426

>  <r_i_glide_emodel>  (91) 
-38.6461

>  <r_i_glide_energy>  (91) 
-30.9699

>  <r_i_glide_einternal>  (91) 
1.02489

>  <r_i_glide_intrahb_reward>  (91) 
-0

>  <i_i_glide_confnum>  (91) 
4

>  <i_i_glide_posenum>  (91) 
39

>  <r_i_glide_eff_state_penalty>  (91) 
0

>  <ligand_id>  (91) 
28

>  <original_smiles>  (91) 
CC12CCC(O)C(O)C1C(=O)OCC2C1C(O)CC2C34CC3OC(O4)C12C

>  <smiles>  (91) 
[H]OC1([H])C([H])([H])C([H])([H])C2(C([H])([H])[H])C([H])(C(=O)OC([H])([H])C2([H])C2([H])C([H])(O[H])C([H])([H])C3([H])C45OC([H])(OC4([H])C5([H])[H])C23C([H])([H])[H])C1([H])O[H]

$$$$
29:0:0
     RDKit          3D

 46 50  0  0  1  0  0  0  0  0999 V2000
    3.7658   -0.5283   -2.8952 C   0  0  0  0  0  0  0  0  0  0  0  0
    3.8753   -1.5858   -1.7859 C   0  0  2  0  0  0  0  0  0  0  0  0
    4.0562   -0.9462   -0.2980 C   0  0  1  0  0  0  0  0  0  0  0  0
    3.1750   -1.3310    0.9751 C   0  0  0  0  0  0  0  0  0  0  0  0
    3.7280   -2.4308    2.0008 C   0  0  0  0  0  0  0  0  0  0  0  0
    4.1730   -3.7452    1.2690 C   0  0  2  0  0  0  0  0  0  0  0  0
    2.8630   -4.5962    1.0709 C   0  0  0  0  0  0  0  0  0  0  0  0
    5.2820   -4.7026    1.7181 C   0  0  1  0  0  0  0  0  0  0  0  0
    4.9838   -5.5427    2.9781 C   0  0  0  0  0  0  0  0  0  0  0  0
    5.6627   -5.5754    0.6093 O   0  0  0  0  0  0  0  0  0  0  0  0
    5.2686   -5.0379   -0.7967 O   0  0  0  0  0  0  0  0  0  0  0  0
    5.7186   -3.6907   -0.9573 C   0  0  1  0  0  0  0  0  0  0  0  0
    7.2521   -3.5319   -0.5684 C   0  0  1  0  0  0  0  0  0  0  0  0
    8.2227   -3.4007   -1.7511 C   0  0  0  0  0  0  0  0  0  0  0  0
    7.5908   -2.3943    0.4845 C   0  0  0  0  0  0  0  0  0  0  0  0
    6.5049   -1.3206    0.7597 C   0  0  0  0  0  0  0  0  0  0  0  0
    5.3089   -1.6832   -0.0968 C   0  0  2  0  0  0  0  0  0  0  0  0
    5.8779   -1.5308   -1.3903 O   0  0  0  0  0  0  0  0  0  0  0  0
    5.1847   -2.5456   -2.0180 C   0  0  2  0  0  0  0  0  0  0  0  0
    4.8019   -3.1436    0.0211 C   0  0  2  0  0  0  0  0  0  0  0  0
    4.6248    0.1394   -2.8986 H   0  0  0  0  0  0  0  0  0  0  0  0
    2.8772    0.0790   -2.7383 H   0  0  0  0  0  0  0  0  0  0  0  0
    3.6793   -0.9839   -3.8807 H   0  0  0  0  0  0  0  0  0  0  0  0
    2.9515   -2.1693   -1.8546 H   0  0  0  0  0  0  0  0  0  0  0  0
    4.2160    0.1344   -0.3425 H   0  0  0  0  0  0  0  0  0  0  0  0
    2.9956   -0.4135    1.5315 H   0  0  0  0  0  0  0  0  0  0  0  0
    2.2169   -1.6785    0.6199 H   0  0  0  0  0  0  0  0  0  0  0  0
    4.5411   -2.0338    2.6049 H   0  0  0  0  0  0  0  0  0  0  0  0
    2.9349   -2.6550    2.7151 H   0  0  0  0  0  0  0  0  0  0  0  0
    3.0272   -5.4820    0.4557 H   0  0  0  0  0  0  0  0  0  0  0  0
    2.0666   -4.0252    0.5975 H   0  0  0  0  0  0  0  0  0  0  0  0
    2.4707   -4.9359    2.0298 H   0  0  0  0  0  0  0  0  0  0  0  0
    6.1526   -4.1045    1.9687 H   0  0  0  0  0  0  0  0  0  0  0  0
    4.6903   -4.8951    3.8025 H   0  0  0  0  0  0  0  0  0  0  0  0
    5.8751   -6.0844    3.2737 H   0  0  0  0  0  0  0  0  0  0  0  0
    4.1941   -6.2712    2.8134 H   0  0  0  0  0  0  0  0  0  0  0  0
    7.5683   -4.4523   -0.0636 H   0  0  0  0  0  0  0  0  0  0  0  0
    8.0997   -2.4439   -2.2618 H   0  0  0  0  0  0  0  0  0  0  0  0
    8.1400   -4.1736   -2.5148 H   0  0  0  0  0  0  0  0  0  0  0  0
    9.2389   -3.4591   -1.3861 H   0  0  0  0  0  0  0  0  0  0  0  0
    7.8074   -2.9339    1.3833 H   0  0  0  0  0  0  0  0  0  0  0  0
    8.5249   -1.8921    0.2339 H   0  0  0  0  0  0  0  0  0  0  0  0
    6.2969   -1.2492    1.8263 H   0  0  0  0  0  0  0  0  0  0  0  0
    6.8587   -0.3295    0.4783 H   0  0  0  0  0  0  0  0  0  0  0  0
    5.5107   -2.6948   -3.0484 H   0  0  0  0  0  0  0  0  0  0  0  0
    3.8615   -3.3700   -0.4691 H   0  0  0  0  0  0  0  0  0  0  0  0
  1  2  1  0
  1 21  1  0
  1 22  1  0
  1 23  1  0
  2 19  1  0
  2  3  1  0
  2 24  1  1
  3 17  1  0
  3  4  1  0
  3 25  1  6
  4  5  1  0
  4 26  1  0
  4 27  1  0
  5  6  1  0
  5 28  1  0
  5 29  1  0
  6 20  1  0
  6  7  1  6
  6  8  1  0
  7 30  1  0
  7 31  1  0
  7 32  1  0
  8  9  1  0
  8 10  1  0
  8 33  1  1
  9 34  1  0
  9 35  1  0
  9 36  1  0
 10 11  1  0
 12 11  1  6
 12 19  1  0
 12 20  1  0
 12 13  1  0
 13 14  1  0
 13 15  1  0
 13 37  1  1
 14 38  1  0
 14 39  1  0
 14 40  1  0
 15 16  1  0
 15 41  1  0
 15 42  1  0
 17 16  1  1
 16 43  1  0
 16 44  1  0
 17 18  1  0
 17 20  1  0
 18 19  1  0
 19 45  1  6
 20 46  1  6
M  END
>  <i_m_ct_stereo_status>  (92) 
1

>  <s_m_source_file>  (92) 
/var/tmp/pbs.5076255.sched01/tmpa1vw3d_c/4207j0axjo.sdf

>  <i_m_source_file_index>  (92) 
4

>  <i_lp_mmshare_version>  (92) 
48012

>  <i_f3d_flags>  (92) 
0

>  <s_epik_input>  (92) 
W0NAXTEyM1tDQEhdNFtDQEhdKFtDSDNdKVtDQEBIXTVbQ0BAXShPNCkoW0NIMl1bQ0gyXVtDQEBIXTJbQ0gzXSlbQ0BASF0zW0NAXShbQ0gzXSkoW0NIMl1bQ0gyXTUpW0NAQEhdKFtDSDNdKU9PMQ==

>  <s_epik_cmdline>  (92) 
J2VwaWtfcHl0aG9uJywgJy1waHQnLCAnMi4wJywgJy1waCcsICc3LjAnLCAnLXRuJywgJzgnLCAnLW1hJywgJzIwMCcsICctaW1hZScsICc8aW5maWxlLm1hZT4nLCAnLW9tYWUnLCAnPG91dGZpbGUubWFlPic=

>  <r_lp_tautomer_probability>  (92) 
1

>  <r_epik_Ionization_Penalty>  (92) 
5.3435e-12

>  <r_epik_Ionization_Penalty_Charging>  (92) 
0

>  <r_epik_Ionization_Penalty_Neutral>  (92) 
5.3435e-12

>  <r_epik_State_Penalty>  (92) 
-0

>  <r_epik_Charging_Adjusted_Penalty>  (92) 
0

>  <i_epik_Tot_Q>  (92) 
0

>  <i_epik_Tot_abs_Q>  (92) 
0

>  <s_lp_Force_Field>  (92) 
OPLS3e

>  <r_lp_Energy>  (92) 
175.474

>  <b_lp_Chiralities_Consistent>  (92) 
1

>  <s_lp_Variant>  (92) 
29:0-1

>  <s_i_glide_gridfile>  (92) 
pfpi4k_grid

>  <i_i_glide_lignum>  (92) 
4

>  <i_i_glide_rotatable_bonds>  (92) 
0

>  <r_i_docking_score>  (92) 
-3.28686

>  <r_i_glide_ligand_efficiency>  (92) 
-0.164343

>  <r_i_glide_ligand_efficiency_sa>  (92) 
-0.446096

>  <r_i_glide_ligand_efficiency_ln>  (92) 
-0.822594

>  <r_i_glide_gscore>  (92) 
-3.28686

>  <r_i_glide_lipo>  (92) 
-0.642708

>  <r_i_glide_hbond>  (92) 
-0.0871611

>  <r_i_glide_metal>  (92) 
-0

>  <r_i_glide_rewards>  (92) 
-1.511

>  <r_i_glide_evdw>  (92) 
-15.3482

>  <r_i_glide_ecoul>  (92) 
-1.85722

>  <r_i_glide_erotb>  (92) 
0

>  <r_i_glide_esite>  (92) 
0

>  <r_i_glide_emodel>  (92) 
-18.8867

>  <r_i_glide_energy>  (92) 
-17.2055

>  <r_i_glide_einternal>  (92) 
0

>  <r_i_glide_intrahb_reward>  (92) 
-0

>  <i_i_glide_confnum>  (92) 
2

>  <i_i_glide_posenum>  (92) 
1

>  <r_i_glide_eff_state_penalty>  (92) 
0

>  <ligand_id>  (92) 
29

>  <original_smiles>  (92) 
CC1C2CCC3(C)C(C)OOC45C(C)CCC2(OC14)C35

>  <smiles>  (92) 
[H]C([H])([H])C1([H])OOC23C4([H])OC5(C([H])([H])C([H])([H])C2([H])C([H])([H])[H])C([H])(C([H])([H])C([H])([H])C1(C([H])([H])[H])C53[H])C4([H])C([H])([H])[H]

$$$$
30:0:0
     RDKit          3D

 30 32  0  0  1  0  0  0  0  0999 V2000
    5.4139   -0.6788    2.0081 C   0  0  0  0  0  0  0  0  0  0  0  0
    5.7547   -1.4468    0.7223 C   0  0  0  0  0  0  0  0  0  0  0  0
    6.7601   -1.1148    0.0919 O   0  0  0  0  0  0  0  0  0  0  0  0
    4.9533   -2.4689    0.3152 N   0  0  0  0  0  0  0  0  0  0  0  0
    4.3039   -2.3563   -0.9754 C   0  0  0  0  0  0  0  0  0  0  0  0
    4.6538   -1.4139   -1.9020 N   0  0  0  0  0  0  0  0  0  0  0  0
    3.9780   -1.3155   -3.0604 C   0  0  0  0  0  0  0  0  0  0  0  0
    2.9029   -2.1490   -3.3888 C   0  0  0  0  0  0  0  0  0  0  0  0
    2.5167   -3.1215   -2.4551 C   0  0  0  0  0  0  0  0  0  0  0  0
    3.2300   -3.2357   -1.2429 C   0  0  0  0  0  0  0  0  0  0  0  0
    2.8842   -4.2176   -0.3002 N   0  0  0  0  0  0  0  0  0  0  0  0
    1.8271   -5.0550   -0.3141 N   0  0  0  0  0  0  0  0  0  0  0  0
    1.9853   -5.8395    0.7083 N   0  0  0  0  0  0  0  0  0  0  0  0
    3.1511   -5.5319    1.4092 N   0  0  0  0  0  0  0  0  0  0  0  0
    3.6619   -4.5020    0.7456 C   0  0  0  0  0  0  0  0  0  0  0  0
    4.9676   -3.7974    1.0236 C   0  0  0  0  0  0  0  0  0  0  0  0
    6.1303   -4.6486    0.4710 C   0  0  0  0  0  0  0  0  0  0  0  0
    5.1154   -3.7094    2.5679 C   0  0  0  0  0  0  0  0  0  0  0  0
    4.6502   -1.1342    2.6363 H   0  0  0  0  0  0  0  0  0  0  0  0
    5.0352    0.3065    1.7392 H   0  0  0  0  0  0  0  0  0  0  0  0
    6.3273   -0.5435    2.5982 H   0  0  0  0  0  0  0  0  0  0  0  0
    4.2937   -0.5504   -3.7542 H   0  0  0  0  0  0  0  0  0  0  0  0
    2.3552   -2.0420   -4.3132 H   0  0  0  0  0  0  0  0  0  0  0  0
    1.6920   -3.7837   -2.6666 H   0  0  0  0  0  0  0  0  0  0  0  0
    6.1577   -5.6366    0.9365 H   0  0  0  0  0  0  0  0  0  0  0  0
    7.0962   -4.1757    0.6510 H   0  0  0  0  0  0  0  0  0  0  0  0
    6.0312   -4.7984   -0.6064 H   0  0  0  0  0  0  0  0  0  0  0  0
    5.1099   -4.7014    3.0323 H   0  0  0  0  0  0  0  0  0  0  0  0
    4.2878   -3.1569    3.0195 H   0  0  0  0  0  0  0  0  0  0  0  0
    6.0601   -3.2438    2.8420 H   0  0  0  0  0  0  0  0  0  0  0  0
  1  2  1  0
  1 19  1  0
  1 20  1  0
  1 21  1  0
  2  3  2  0
  2  4  1  0
  4 16  1  0
  4  5  1  0
  5 10  2  0
  5  6  1  0
  6  7  2  0
  7  8  1  0
  7 22  1  0
  8  9  2  0
  8 23  1  0
  9 10  1  0
  9 24  1  0
 10 11  1  0
 11 15  1  0
 11 12  1  0
 12 13  2  0
 13 14  1  0
 14 15  2  0
 15 16  1  0
 16 17  1  0
 16 18  1  0
 17 25  1  0
 17 26  1  0
 17 27  1  0
 18 28  1  0
 18 29  1  0
 18 30  1  0
M  END
>  <i_m_ct_stereo_status>  (93) 
1

>  <s_m_source_file>  (93) 
/var/tmp/pbs.5076255.sched01/tmpa1vw3d_c/4207j0axjo.sdf

>  <i_m_source_file_index>  (93) 
5

>  <i_lp_mmshare_version>  (93) 
48012

>  <i_f3d_flags>  (93) 
0

>  <s_epik_input>  (93) 
W0NIM11DKD1PKU4xQyhbQ0gzXSkoW0NIM10pYyhubm4yKW4yYyhjMTMpW2NIXVtjSF1bY0hdbjM=

>  <s_epik_cmdline>  (93) 
J2VwaWtfcHl0aG9uJywgJy1waHQnLCAnMi4wJywgJy1waCcsICc3LjAnLCAnLXRuJywgJzgnLCAnLW1hJywgJzIwMCcsICctaW1hZScsICc8aW5maWxlLm1hZT4nLCAnLW9tYWUnLCAnPG91dGZpbGUubWFlPic=

>  <r_lp_tautomer_probability>  (93) 
1

>  <r_epik_Ionization_Penalty>  (93) 
9.93374e-07

>  <r_epik_Ionization_Penalty_Charging>  (93) 
0

>  <r_epik_Ionization_Penalty_Neutral>  (93) 
9.93374e-07

>  <r_epik_State_Penalty>  (93) 
-0

>  <r_epik_Charging_Adjusted_Penalty>  (93) 
0

>  <i_epik_Tot_Q>  (93) 
0

>  <i_epik_Tot_abs_Q>  (93) 
0

>  <s_lp_Force_Field>  (93) 
OPLS3e

>  <r_lp_Energy>  (93) 
38.6005

>  <b_lp_Chiralities_Consistent>  (93) 
1

>  <s_lp_Variant>  (93) 
30:0-1

>  <s_i_glide_gridfile>  (93) 
pfpi4k_grid

>  <i_i_glide_lignum>  (93) 
5

>  <i_i_glide_rotatable_bonds>  (93) 
1

>  <r_i_docking_score>  (93) 
-4.51899

>  <r_i_glide_ligand_efficiency>  (93) 
-0.251055

>  <r_i_glide_ligand_efficiency_sa>  (93) 
-0.65795

>  <r_i_glide_ligand_efficiency_ln>  (93) 
-1.16158

>  <r_i_glide_gscore>  (93) 
-4.51899

>  <r_i_glide_lipo>  (93) 
-0.581548

>  <r_i_glide_hbond>  (93) 
-0.0652414

>  <r_i_glide_metal>  (93) 
-0

>  <r_i_glide_rewards>  (93) 
-1.91776

>  <r_i_glide_evdw>  (93) 
-23.1895

>  <r_i_glide_ecoul>  (93) 
-4.00985

>  <r_i_glide_erotb>  (93) 
0

>  <r_i_glide_esite>  (93) 
-0.19349

>  <r_i_glide_emodel>  (93) 
-30.5835

>  <r_i_glide_energy>  (93) 
-27.1993

>  <r_i_glide_einternal>  (93) 
9.45278

>  <r_i_glide_intrahb_reward>  (93) 
-0

>  <i_i_glide_confnum>  (93) 
1

>  <i_i_glide_posenum>  (93) 
1

>  <r_i_glide_eff_state_penalty>  (93) 
0

>  <ligand_id>  (93) 
30

>  <original_smiles>  (93) 
CC(=O)N1c2ncccc2-n2nnnc2C1(C)C

>  <smiles>  (93) 
[H]c1nc2c(c([H])c1[H])-n1nnnc1C(C([H])([H])[H])(C([H])([H])[H])N2C(=O)C([H])([H])[H]

$$$$
30:0:1
     RDKit          3D

 30 32  0  0  1  0  0  0  0  0999 V2000
    5.2230   -0.4114    0.7301 C   0  0  0  0  0  0  0  0  0  0  0  0
    5.7232   -1.8509    0.8297 C   0  0  0  0  0  0  0  0  0  0  0  0
    6.8621   -2.0287    1.2497 O   0  0  0  0  0  0  0  0  0  0  0  0
    4.9271   -2.8673    0.4096 N   0  0  0  0  0  0  0  0  0  0  0  0
    4.1532   -2.7038   -0.8010 C   0  0  0  0  0  0  0  0  0  0  0  0
    4.4880   -1.7866   -1.7550 N   0  0  0  0  0  0  0  0  0  0  0  0
    3.7291   -1.6563   -2.8594 C   0  0  0  0  0  0  0  0  0  0  0  0
    2.6172   -2.4708   -3.1206 C   0  0  0  0  0  0  0  0  0  0  0  0
    2.2645   -3.4373   -2.1598 C   0  0  0  0  0  0  0  0  0  0  0  0
    3.0496   -3.5706   -0.9931 C   0  0  0  0  0  0  0  0  0  0  0  0
    2.7848   -4.5859   -0.0517 N   0  0  0  0  0  0  0  0  0  0  0  0
    1.7445   -5.4542   -0.0082 N   0  0  0  0  0  0  0  0  0  0  0  0
    1.9753   -6.2396    1.0017 N   0  0  0  0  0  0  0  0  0  0  0  0
    3.1827   -5.9349    1.6016 N   0  0  0  0  0  0  0  0  0  0  0  0
    3.6415   -4.8909    0.9162 C   0  0  0  0  0  0  0  0  0  0  0  0
    4.9710   -4.2060    1.0996 C   0  0  0  0  0  0  0  0  0  0  0  0
    6.0801   -5.0705    0.4759 C   0  0  0  0  0  0  0  0  0  0  0  0
    5.2082   -4.0849    2.6287 C   0  0  0  0  0  0  0  0  0  0  0  0
    4.1427   -0.3389    0.5937 H   0  0  0  0  0  0  0  0  0  0  0  0
    5.7129    0.0768   -0.1077 H   0  0  0  0  0  0  0  0  0  0  0  0
    5.4978    0.1382    1.6274 H   0  0  0  0  0  0  0  0  0  0  0  0
    4.0129   -0.8764   -3.5493 H   0  0  0  0  0  0  0  0  0  0  0  0
    2.0316   -2.3370   -4.0162 H   0  0  0  0  0  0  0  0  0  0  0  0
    1.4193   -4.0918   -2.3263 H   0  0  0  0  0  0  0  0  0  0  0  0
    6.1240   -6.0654    0.9224 H   0  0  0  0  0  0  0  0  0  0  0  0
    7.0660   -4.6160    0.5904 H   0  0  0  0  0  0  0  0  0  0  0  0
    5.8954   -5.1995   -0.5901 H   0  0  0  0  0  0  0  0  0  0  0  0
    5.1382   -5.0541    3.1257 H   0  0  0  0  0  0  0  0  0  0  0  0
    4.4767   -3.4288    3.1045 H   0  0  0  0  0  0  0  0  0  0  0  0
    6.2000   -3.7175    2.8648 H   0  0  0  0  0  0  0  0  0  0  0  0
  1  2  1  0
  1 19  1  0
  1 20  1  0
  1 21  1  0
  2  3  2  0
  2  4  1  0
  4 16  1  0
  4  5  1  0
  5 10  2  0
  5  6  1  0
  6  7  2  0
  7  8  1  0
  7 22  1  0
  8  9  2  0
  8 23  1  0
  9 10  1  0
  9 24  1  0
 10 11  1  0
 11 15  1  0
 11 12  1  0
 12 13  2  0
 13 14  1  0
 14 15  2  0
 15 16  1  0
 16 17  1  0
 16 18  1  0
 17 25  1  0
 17 26  1  0
 17 27  1  0
 18 28  1  0
 18 29  1  0
 18 30  1  0
M  END
>  <i_m_ct_stereo_status>  (94) 
1

>  <s_m_source_file>  (94) 
/var/tmp/pbs.5076255.sched01/tmpa1vw3d_c/4207j0axjo.sdf

>  <i_m_source_file_index>  (94) 
5

>  <i_lp_mmshare_version>  (94) 
48012

>  <i_f3d_flags>  (94) 
0

>  <s_epik_input>  (94) 
W0NIM11DKD1PKU4xQyhbQ0gzXSkoW0NIM10pYyhubm4yKW4yYyhjMTMpW2NIXVtjSF1bY0hdbjM=

>  <s_epik_cmdline>  (94) 
J2VwaWtfcHl0aG9uJywgJy1waHQnLCAnMi4wJywgJy1waCcsICc3LjAnLCAnLXRuJywgJzgnLCAnLW1hJywgJzIwMCcsICctaW1hZScsICc8aW5maWxlLm1hZT4nLCAnLW9tYWUnLCAnPG91dGZpbGUubWFlPic=

>  <r_lp_tautomer_probability>  (94) 
1

>  <r_epik_Ionization_Penalty>  (94) 
9.93374e-07

>  <r_epik_Ionization_Penalty_Charging>  (94) 
0

>  <r_epik_Ionization_Penalty_Neutral>  (94) 
9.93374e-07

>  <r_epik_State_Penalty>  (94) 
-0

>  <r_epik_Charging_Adjusted_Penalty>  (94) 
0

>  <i_epik_Tot_Q>  (94) 
0

>  <i_epik_Tot_abs_Q>  (94) 
0

>  <s_lp_Force_Field>  (94) 
OPLS3e

>  <r_lp_Energy>  (94) 
38.6005

>  <b_lp_Chiralities_Consistent>  (94) 
1

>  <s_lp_Variant>  (94) 
30:0-1

>  <s_i_glide_gridfile>  (94) 
pfpi4k_grid

>  <i_i_glide_lignum>  (94) 
5

>  <i_i_glide_rotatable_bonds>  (94) 
1

>  <r_i_docking_score>  (94) 
-4.29888

>  <r_i_glide_ligand_efficiency>  (94) 
-0.238827

>  <r_i_glide_ligand_efficiency_sa>  (94) 
-0.625903

>  <r_i_glide_ligand_efficiency_ln>  (94) 
-1.105

>  <r_i_glide_gscore>  (94) 
-4.29888

>  <r_i_glide_lipo>  (94) 
-0.644325

>  <r_i_glide_hbond>  (94) 
0

>  <r_i_glide_metal>  (94) 
-0

>  <r_i_glide_rewards>  (94) 
-1.90674

>  <r_i_glide_evdw>  (94) 
-20.3178

>  <r_i_glide_ecoul>  (94) 
-3.65469

>  <r_i_glide_erotb>  (94) 
0

>  <r_i_glide_esite>  (94) 
-0.183723

>  <r_i_glide_emodel>  (94) 
-31.6064

>  <r_i_glide_energy>  (94) 
-23.9725

>  <r_i_glide_einternal>  (94) 
0.862276

>  <r_i_glide_intrahb_reward>  (94) 
-0

>  <i_i_glide_confnum>  (94) 
2

>  <i_i_glide_posenum>  (94) 
37

>  <r_i_glide_eff_state_penalty>  (94) 
0

>  <ligand_id>  (94) 
30

>  <original_smiles>  (94) 
CC(=O)N1c2ncccc2-n2nnnc2C1(C)C

>  <smiles>  (94) 
[H]c1nc2c(c([H])c1[H])-n1nnnc1C(C([H])([H])[H])(C([H])([H])[H])N2C(=O)C([H])([H])[H]

$$$$
30:0:2
     RDKit          3D

 30 32  0  0  1  0  0  0  0  0999 V2000
    4.2392    0.0857    1.2795 C   0  0  0  0  0  0  0  0  0  0  0  0
    4.8592   -1.2553    1.6654 C   0  0  0  0  0  0  0  0  0  0  0  0
    5.8180   -1.2226    2.4339 O   0  0  0  0  0  0  0  0  0  0  0  0
    4.3764   -2.4050    1.1096 N   0  0  0  0  0  0  0  0  0  0  0  0
    3.8851   -2.3951   -0.2573 C   0  0  0  0  0  0  0  0  0  0  0  0
    4.2783   -1.4558   -1.1638 N   0  0  0  0  0  0  0  0  0  0  0  0
    3.7446   -1.4499   -2.4042 C   0  0  0  0  0  0  0  0  0  0  0  0
    2.8521   -2.4290   -2.8638 C   0  0  0  0  0  0  0  0  0  0  0  0
    2.4817   -3.4440   -1.9640 C   0  0  0  0  0  0  0  0  0  0  0  0
    3.0081   -3.4376   -0.6548 C   0  0  0  0  0  0  0  0  0  0  0  0
    2.7052   -4.4758    0.2347 N   0  0  0  0  0  0  0  0  0  0  0  0
    1.8218   -5.4855    0.0834 N   0  0  0  0  0  0  0  0  0  0  0  0
    1.9259   -6.2125    1.1571 N   0  0  0  0  0  0  0  0  0  0  0  0
    2.8953   -5.7058    2.0093 N   0  0  0  0  0  0  0  0  0  0  0  0
    3.3377   -4.6101    1.3985 C   0  0  0  0  0  0  0  0  0  0  0  0
    4.4659   -3.7111    1.8546 C   0  0  0  0  0  0  0  0  0  0  0  0
    5.8136   -4.3807    1.5268 C   0  0  0  0  0  0  0  0  0  0  0  0
    4.3178   -3.5520    3.3973 C   0  0  0  0  0  0  0  0  0  0  0  0
    3.2483    0.0116    0.8315 H   0  0  0  0  0  0  0  0  0  0  0  0
    4.9054    0.5573    0.5608 H   0  0  0  0  0  0  0  0  0  0  0  0
    4.1549    0.7233    2.1564 H   0  0  0  0  0  0  0  0  0  0  0  0
    4.0414   -0.6228   -3.0336 H   0  0  0  0  0  0  0  0  0  0  0  0
    2.4618   -2.3942   -3.8726 H   0  0  0  0  0  0  0  0  0  0  0  0
    1.8078   -4.2273   -2.2966 H   0  0  0  0  0  0  0  0  0  0  0  0
    5.9137   -5.3476    2.0219 H   0  0  0  0  0  0  0  0  0  0  0  0
    6.6504   -3.7601    1.8488 H   0  0  0  0  0  0  0  0  0  0  0  0
    5.9248   -4.5488    0.4553 H   0  0  0  0  0  0  0  0  0  0  0  0
    4.2875   -4.5155    3.9053 H   0  0  0  0  0  0  0  0  0  0  0  0
    3.4029   -3.0236    3.6667 H   0  0  0  0  0  0  0  0  0  0  0  0
    5.1496   -3.0330    3.8677 H   0  0  0  0  0  0  0  0  0  0  0  0
  1  2  1  0
  1 19  1  0
  1 20  1  0
  1 21  1  0
  2  3  2  0
  2  4  1  0
  4 16  1  0
  4  5  1  0
  5 10  2  0
  5  6  1  0
  6  7  2  0
  7  8  1  0
  7 22  1  0
  8  9  2  0
  8 23  1  0
  9 10  1  0
  9 24  1  0
 10 11  1  0
 11 15  1  0
 11 12  1  0
 12 13  2  0
 13 14  1  0
 14 15  2  0
 15 16  1  0
 16 17  1  0
 16 18  1  0
 17 25  1  0
 17 26  1  0
 17 27  1  0
 18 28  1  0
 18 29  1  0
 18 30  1  0
M  END
>  <i_m_ct_stereo_status>  (95) 
1

>  <s_m_source_file>  (95) 
/var/tmp/pbs.5076255.sched01/tmpa1vw3d_c/4207j0axjo.sdf

>  <i_m_source_file_index>  (95) 
5

>  <i_lp_mmshare_version>  (95) 
48012

>  <i_f3d_flags>  (95) 
0

>  <s_epik_input>  (95) 
W0NIM11DKD1PKU4xQyhbQ0gzXSkoW0NIM10pYyhubm4yKW4yYyhjMTMpW2NIXVtjSF1bY0hdbjM=

>  <s_epik_cmdline>  (95) 
J2VwaWtfcHl0aG9uJywgJy1waHQnLCAnMi4wJywgJy1waCcsICc3LjAnLCAnLXRuJywgJzgnLCAnLW1hJywgJzIwMCcsICctaW1hZScsICc8aW5maWxlLm1hZT4nLCAnLW9tYWUnLCAnPG91dGZpbGUubWFlPic=

>  <r_lp_tautomer_probability>  (95) 
1

>  <r_epik_Ionization_Penalty>  (95) 
9.93374e-07

>  <r_epik_Ionization_Penalty_Charging>  (95) 
0

>  <r_epik_Ionization_Penalty_Neutral>  (95) 
9.93374e-07

>  <r_epik_State_Penalty>  (95) 
-0

>  <r_epik_Charging_Adjusted_Penalty>  (95) 
0

>  <i_epik_Tot_Q>  (95) 
0

>  <i_epik_Tot_abs_Q>  (95) 
0

>  <s_lp_Force_Field>  (95) 
OPLS3e

>  <r_lp_Energy>  (95) 
38.6005

>  <b_lp_Chiralities_Consistent>  (95) 
1

>  <s_lp_Variant>  (95) 
30:0-1

>  <s_i_glide_gridfile>  (95) 
pfpi4k_grid

>  <i_i_glide_lignum>  (95) 
5

>  <i_i_glide_rotatable_bonds>  (95) 
1

>  <r_i_docking_score>  (95) 
-3.9603

>  <r_i_glide_ligand_efficiency>  (95) 
-0.220017

>  <r_i_glide_ligand_efficiency_sa>  (95) 
-0.576607

>  <r_i_glide_ligand_efficiency_ln>  (95) 
-1.01798

>  <r_i_glide_gscore>  (95) 
-3.9603

>  <r_i_glide_lipo>  (95) 
-0.302279

>  <r_i_glide_hbond>  (95) 
0

>  <r_i_glide_metal>  (95) 
-0

>  <r_i_glide_rewards>  (95) 
-1.85661

>  <r_i_glide_evdw>  (95) 
-21.6519

>  <r_i_glide_ecoul>  (95) 
-3.58203

>  <r_i_glide_erotb>  (95) 
0

>  <r_i_glide_esite>  (95) 
-0.181516

>  <r_i_glide_emodel>  (95) 
-32.5173

>  <r_i_glide_energy>  (95) 
-25.2339

>  <r_i_glide_einternal>  (95) 
0.0861125

>  <r_i_glide_intrahb_reward>  (95) 
-0

>  <i_i_glide_confnum>  (95) 
1

>  <i_i_glide_posenum>  (95) 
33

>  <r_i_glide_eff_state_penalty>  (95) 
0

>  <ligand_id>  (95) 
30

>  <original_smiles>  (95) 
CC(=O)N1c2ncccc2-n2nnnc2C1(C)C

>  <smiles>  (95) 
[H]c1nc2c(c([H])c1[H])-n1nnnc1C(C([H])([H])[H])(C([H])([H])[H])N2C(=O)C([H])([H])[H]

$$$$
31:0:0
     RDKit          3D

 24 26  0  0  1  0  0  0  0  0999 V2000
    4.4181   -0.6583   -2.7442 C   0  0  0  0  0  0  0  0  0  0  0  0
    4.8114   -1.5628   -1.5974 C   0  0  0  0  0  0  0  0  0  0  0  0
    3.8415   -2.0373   -0.6803 C   0  0  0  0  0  0  0  0  0  0  0  0
    4.2502   -2.8763    0.3235 C   0  0  0  0  0  0  0  0  0  0  0  0
    3.1101   -3.5178    1.5134 S   0  0  0  0  0  0  0  0  0  0  0  0
    3.1342   -5.3168    1.3142 C   0  0  0  0  0  0  0  0  0  0  0  0
    1.7734   -5.8768    1.5841 C   0  0  0  0  0  0  0  0  0  0  0  0
    1.2761   -6.0758    2.8165 N   0  0  0  0  0  0  0  0  0  0  0  0
    0.0968   -6.6708    2.5863 N   0  0  0  0  0  0  0  0  0  0  0  0
   -0.1224   -6.7384    1.2706 N   0  0  0  0  0  0  0  0  0  0  0  0
    0.9338   -6.2581    0.6106 N   0  0  0  0  0  0  0  0  0  0  0  0
    5.5795   -3.1942    0.4071 N   0  0  0  0  0  0  0  0  0  0  0  0
    6.2367   -3.9672    1.3180 N   0  0  0  0  0  0  0  0  0  0  0  0
    7.4919   -3.8882    0.8834 C   0  0  0  0  0  0  0  0  0  0  0  0
    7.7063   -3.1133   -0.2144 N   0  0  0  0  0  0  0  0  0  0  0  0
    6.4898   -2.6793   -0.5292 C   0  0  0  0  0  0  0  0  0  0  0  0
    6.1051   -1.8634   -1.5249 N   0  0  0  0  0  0  0  0  0  0  0  0
    3.3602   -0.4076   -2.6931 H   0  0  0  0  0  0  0  0  0  0  0  0
    4.6137   -1.1446   -3.7021 H   0  0  0  0  0  0  0  0  0  0  0  0
    4.9852    0.2715   -2.7067 H   0  0  0  0  0  0  0  0  0  0  0  0
    2.7928   -1.7672   -0.7675 H   0  0  0  0  0  0  0  0  0  0  0  0
    3.4433   -5.5363    0.2916 H   0  0  0  0  0  0  0  0  0  0  0  0
    3.8922   -5.7324    1.9760 H   0  0  0  0  0  0  0  0  0  0  0  0
    8.3008   -4.3996    1.3933 H   0  0  0  0  0  0  0  0  0  0  0  0
  1  2  1  0
  1 18  1  0
  1 19  1  0
  1 20  1  0
  2 17  2  0
  2  3  1  0
  3  4  2  0
  3 21  1  0
  4  5  1  0
  4 12  1  0
  5  6  1  0
  6 22  1  0
  6 23  1  0
  6  7  1  0
  7 11  2  0
  7  8  1  0
  8  9  1  0
  9 10  2  0
 10 11  1  0
 12 16  1  0
 12 13  1  0
 13 14  2  0
 14 15  1  0
 14 24  1  0
 15 16  2  0
 16 17  1  0
M  CHG  1   8  -1
M  END
>  <i_m_ct_stereo_status>  (96) 
1

>  <s_m_source_file>  (96) 
/var/tmp/pbs.5076255.sched01/tmpa1vw3d_c/4207j0axjo.sdf

>  <i_m_source_file_index>  (96) 
6

>  <i_lp_mmshare_version>  (96) 
48012

>  <i_f3d_flags>  (96) 
0

>  <s_epik_input>  (96) 
bjFbY0hdbmMobjEyKW5jKFtDSDNdKVtjSF1jMlNbQ0gyXWMzbm5bbkhdbjM=

>  <s_epik_cmdline>  (96) 
J2VwaWtfcHl0aG9uJywgJy1waHQnLCAnMi4wJywgJy1waCcsICc3LjAnLCAnLXRuJywgJzgnLCAnLW1hJywgJzIwMCcsICctaW1hZScsICc8aW5maWxlLm1hZT4nLCAnLW9tYWUnLCAnPG91dGZpbGUubWFlPic=

>  <r_epik_Ionization_Penalty>  (96) 
0.000647208

>  <r_epik_Ionization_Penalty_Charging>  (96) 
0.000645823

>  <r_epik_Ionization_Penalty_Neutral>  (96) 
1.38515e-06

>  <r_epik_State_Penalty>  (96) 
0.000288886

>  <r_epik_Charging_Adjusted_Penalty>  (96) 
0.000934709

>  <i_epik_Tot_Q>  (96) 
-1

>  <i_epik_Tot_abs_Q>  (96) 
1

>  <s_lp_Force_Field>  (96) 
OPLS3e

>  <r_lp_Energy>  (96) 
9.75929

>  <b_lp_Chiralities_Consistent>  (96) 
1

>  <s_lp_Variant>  (96) 
31:0-1

>  <s_i_glide_gridfile>  (96) 
pfpi4k_grid

>  <i_i_glide_lignum>  (96) 
6

>  <i_i_glide_rotatable_bonds>  (96) 
3

>  <r_i_docking_score>  (96) 
-3.8737

>  <r_i_glide_ligand_efficiency>  (96) 
-0.227865

>  <r_i_glide_ligand_efficiency_sa>  (96) 
-0.585904

>  <r_i_glide_ligand_efficiency_ln>  (96) 
-1.01056

>  <r_i_glide_gscore>  (96) 
-3.8737

>  <r_i_glide_lipo>  (96) 
-0.0523457

>  <r_i_glide_hbond>  (96) 
-0.123314

>  <r_i_glide_metal>  (96) 
-0

>  <r_i_glide_rewards>  (96) 
-1.95608

>  <r_i_glide_evdw>  (96) 
-21.374

>  <r_i_glide_ecoul>  (96) 
-7.60522

>  <r_i_glide_erotb>  (96) 
0.856005

>  <r_i_glide_esite>  (96) 
-0.388483

>  <r_i_glide_emodel>  (96) 
-37.795

>  <r_i_glide_energy>  (96) 
-28.9792

>  <r_i_glide_einternal>  (96) 
1.71628

>  <r_i_glide_intrahb_reward>  (96) 
-0

>  <i_i_glide_confnum>  (96) 
3

>  <i_i_glide_posenum>  (96) 
9

>  <r_i_glide_eff_state_penalty>  (96) 
0

>  <ligand_id>  (96) 
31

>  <original_smiles>  (96) 
Cc1cc(SCc2nn[nH]n2)n2ncnc2n1

>  <smiles>  (96) 
[H]c1nc2nc(C([H])([H])[H])c([H])c(SC([H])([H])c3nnn[n-]3)n2n1

$$$$
31:0:1
     RDKit          3D

 24 26  0  0  1  0  0  0  0  0999 V2000
    2.8240   -1.7988   -2.8494 C   0  0  0  0  0  0  0  0  0  0  0  0
    3.8430   -2.4572   -1.9465 C   0  0  0  0  0  0  0  0  0  0  0  0
    3.4645   -3.5259   -1.0955 C   0  0  0  0  0  0  0  0  0  0  0  0
    4.4331   -4.1095   -0.3158 C   0  0  0  0  0  0  0  0  0  0  0  0
    4.0908   -5.4567    0.7850 S   0  0  0  0  0  0  0  0  0  0  0  0
    2.7519   -4.8766    1.8711 C   0  0  0  0  0  0  0  0  0  0  0  0
    1.5959   -5.8361    1.8920 C   0  0  0  0  0  0  0  0  0  0  0  0
    0.9505   -6.2554    0.7926 N   0  0  0  0  0  0  0  0  0  0  0  0
   -0.0356   -7.0175    1.2759 N   0  0  0  0  0  0  0  0  0  0  0  0
   -0.0141   -6.9945    2.6093 N   0  0  0  0  0  0  0  0  0  0  0  0
    0.9924   -6.2205    3.0277 N   0  0  0  0  0  0  0  0  0  0  0  0
    5.7099   -3.6291   -0.3955 N   0  0  0  0  0  0  0  0  0  0  0  0
    6.8347   -4.0111    0.2756 N   0  0  0  0  0  0  0  0  0  0  0  0
    7.7437   -3.1737   -0.2053 C   0  0  0  0  0  0  0  0  0  0  0  0
    7.2988   -2.2643   -1.1185 N   0  0  0  0  0  0  0  0  0  0  0  0
    6.0132   -2.5627   -1.2570 C   0  0  0  0  0  0  0  0  0  0  0  0
    5.0793   -1.9779   -2.0318 N   0  0  0  0  0  0  0  0  0  0  0  0
    1.8337   -2.2246   -2.6854 H   0  0  0  0  0  0  0  0  0  0  0  0
    3.0846   -1.9450   -3.8987 H   0  0  0  0  0  0  0  0  0  0  0  0
    2.7788   -0.7277   -2.6437 H   0  0  0  0  0  0  0  0  0  0  0  0
    2.4549   -3.9169   -1.0948 H   0  0  0  0  0  0  0  0  0  0  0  0
    3.1757   -4.7324    2.8634 H   0  0  0  0  0  0  0  0  0  0  0  0
    2.4328   -3.8870    1.5455 H   0  0  0  0  0  0  0  0  0  0  0  0
    8.7730   -3.2021    0.1233 H   0  0  0  0  0  0  0  0  0  0  0  0
  1  2  1  0
  1 18  1  0
  1 19  1  0
  1 20  1  0
  2 17  2  0
  2  3  1  0
  3  4  2  0
  3 21  1  0
  4  5  1  0
  4 12  1  0
  5  6  1  0
  6 22  1  0
  6 23  1  0
  6  7  1  0
  7 11  2  0
  7  8  1  0
  8  9  1  0
  9 10  2  0
 10 11  1  0
 12 16  1  0
 12 13  1  0
 13 14  2  0
 14 15  1  0
 14 24  1  0
 15 16  2  0
 16 17  1  0
M  CHG  1   8  -1
M  END
>  <i_m_ct_stereo_status>  (97) 
1

>  <s_m_source_file>  (97) 
/var/tmp/pbs.5076255.sched01/tmpa1vw3d_c/4207j0axjo.sdf

>  <i_m_source_file_index>  (97) 
6

>  <i_lp_mmshare_version>  (97) 
48012

>  <i_f3d_flags>  (97) 
0

>  <s_epik_input>  (97) 
bjFbY0hdbmMobjEyKW5jKFtDSDNdKVtjSF1jMlNbQ0gyXWMzbm5bbkhdbjM=

>  <s_epik_cmdline>  (97) 
J2VwaWtfcHl0aG9uJywgJy1waHQnLCAnMi4wJywgJy1waCcsICc3LjAnLCAnLXRuJywgJzgnLCAnLW1hJywgJzIwMCcsICctaW1hZScsICc8aW5maWxlLm1hZT4nLCAnLW9tYWUnLCAnPG91dGZpbGUubWFlPic=

>  <r_epik_Ionization_Penalty>  (97) 
0.000647208

>  <r_epik_Ionization_Penalty_Charging>  (97) 
0.000645823

>  <r_epik_Ionization_Penalty_Neutral>  (97) 
1.38515e-06

>  <r_epik_State_Penalty>  (97) 
0.000288886

>  <r_epik_Charging_Adjusted_Penalty>  (97) 
0.000934709

>  <i_epik_Tot_Q>  (97) 
-1

>  <i_epik_Tot_abs_Q>  (97) 
1

>  <s_lp_Force_Field>  (97) 
OPLS3e

>  <r_lp_Energy>  (97) 
9.75929

>  <b_lp_Chiralities_Consistent>  (97) 
1

>  <s_lp_Variant>  (97) 
31:0-1

>  <s_i_glide_gridfile>  (97) 
pfpi4k_grid

>  <i_i_glide_lignum>  (97) 
6

>  <i_i_glide_rotatable_bonds>  (97) 
3

>  <r_i_docking_score>  (97) 
-3.67569

>  <r_i_glide_ligand_efficiency>  (97) 
-0.216217

>  <r_i_glide_ligand_efficiency_sa>  (97) 
-0.555955

>  <r_i_glide_ligand_efficiency_ln>  (97) 
-0.958906

>  <r_i_glide_gscore>  (97) 
-3.67569

>  <r_i_glide_lipo>  (97) 
-0.0745131

>  <r_i_glide_hbond>  (97) 
-0.16

>  <r_i_glide_metal>  (97) 
-0

>  <r_i_glide_rewards>  (97) 
-2.03511

>  <r_i_glide_evdw>  (97) 
-23.8294

>  <r_i_glide_ecoul>  (97) 
-4.49445

>  <r_i_glide_erotb>  (97) 
0.856005

>  <r_i_glide_esite>  (97) 
-0.396435

>  <r_i_glide_emodel>  (97) 
-36.2975

>  <r_i_glide_energy>  (97) 
-28.3238

>  <r_i_glide_einternal>  (97) 
2.30176

>  <r_i_glide_intrahb_reward>  (97) 
-0

>  <i_i_glide_confnum>  (97) 
2

>  <i_i_glide_posenum>  (97) 
1

>  <r_i_glide_eff_state_penalty>  (97) 
0

>  <ligand_id>  (97) 
31

>  <original_smiles>  (97) 
Cc1cc(SCc2nn[nH]n2)n2ncnc2n1

>  <smiles>  (97) 
[H]c1nc2nc(C([H])([H])[H])c([H])c(SC([H])([H])c3nnn[n-]3)n2n1

$$$$
31:0:2
     RDKit          3D

 24 26  0  0  1  0  0  0  0  0999 V2000
    4.5740   -1.2285   -2.2101 C   0  0  0  0  0  0  0  0  0  0  0  0
    5.1759   -2.3202   -1.3523 C   0  0  0  0  0  0  0  0  0  0  0  0
    4.3651   -3.3734   -0.8625 C   0  0  0  0  0  0  0  0  0  0  0  0
    4.9651   -4.3404   -0.0837 C   0  0  0  0  0  0  0  0  0  0  0  0
    4.0716   -5.7090    0.6001 S   0  0  0  0  0  0  0  0  0  0  0  0
    2.7770   -4.9790    1.6473 C   0  0  0  0  0  0  0  0  0  0  0  0
    1.5849   -5.8792    1.7617 C   0  0  0  0  0  0  0  0  0  0  0  0
    0.8302   -6.2585    0.7189 N   0  0  0  0  0  0  0  0  0  0  0  0
   -0.1550   -6.9752    1.2781 N   0  0  0  0  0  0  0  0  0  0  0  0
   -0.0075   -6.9796    2.6091 N   0  0  0  0  0  0  0  0  0  0  0  0
    1.0713   -6.2547    2.9421 N   0  0  0  0  0  0  0  0  0  0  0  0
    6.2985   -4.2353    0.1625 N   0  0  0  0  0  0  0  0  0  0  0  0
    7.1090   -5.0556    0.8891 N   0  0  0  0  0  0  0  0  0  0  0  0
    8.2804   -4.4433    0.7920 C   0  0  0  0  0  0  0  0  0  0  0  0
    8.3065   -3.2970    0.0554 N   0  0  0  0  0  0  0  0  0  0  0  0
    7.0473   -3.1627   -0.3533 C   0  0  0  0  0  0  0  0  0  0  0  0
    6.4813   -2.2047   -1.1156 N   0  0  0  0  0  0  0  0  0  0  0  0
    3.4966   -1.3604   -2.3023 H   0  0  0  0  0  0  0  0  0  0  0  0
    5.0143   -1.2489   -3.2072 H   0  0  0  0  0  0  0  0  0  0  0  0
    4.7604   -0.2542   -1.7615 H   0  0  0  0  0  0  0  0  0  0  0  0
    3.3111   -3.4424   -1.0994 H   0  0  0  0  0  0  0  0  0  0  0  0
    3.2251   -4.7637    2.6168 H   0  0  0  0  0  0  0  0  0  0  0  0
    2.4830   -4.0133    1.2362 H   0  0  0  0  0  0  0  0  0  0  0  0
    9.1649   -4.8413    1.2729 H   0  0  0  0  0  0  0  0  0  0  0  0
  1  2  1  0
  1 18  1  0
  1 19  1  0
  1 20  1  0
  2 17  2  0
  2  3  1  0
  3  4  2  0
  3 21  1  0
  4  5  1  0
  4 12  1  0
  5  6  1  0
  6 22  1  0
  6 23  1  0
  6  7  1  0
  7 11  2  0
  7  8  1  0
  8  9  1  0
  9 10  2  0
 10 11  1  0
 12 16  1  0
 12 13  1  0
 13 14  2  0
 14 15  1  0
 14 24  1  0
 15 16  2  0
 16 17  1  0
M  CHG  1   8  -1
M  END
>  <i_m_ct_stereo_status>  (98) 
1

>  <s_m_source_file>  (98) 
/var/tmp/pbs.5076255.sched01/tmpa1vw3d_c/4207j0axjo.sdf

>  <i_m_source_file_index>  (98) 
6

>  <i_lp_mmshare_version>  (98) 
48012

>  <i_f3d_flags>  (98) 
0

>  <s_epik_input>  (98) 
bjFbY0hdbmMobjEyKW5jKFtDSDNdKVtjSF1jMlNbQ0gyXWMzbm5bbkhdbjM=

>  <s_epik_cmdline>  (98) 
J2VwaWtfcHl0aG9uJywgJy1waHQnLCAnMi4wJywgJy1waCcsICc3LjAnLCAnLXRuJywgJzgnLCAnLW1hJywgJzIwMCcsICctaW1hZScsICc8aW5maWxlLm1hZT4nLCAnLW9tYWUnLCAnPG91dGZpbGUubWFlPic=

>  <r_epik_Ionization_Penalty>  (98) 
0.000647208

>  <r_epik_Ionization_Penalty_Charging>  (98) 
0.000645823

>  <r_epik_Ionization_Penalty_Neutral>  (98) 
1.38515e-06

>  <r_epik_State_Penalty>  (98) 
0.000288886

>  <r_epik_Charging_Adjusted_Penalty>  (98) 
0.000934709

>  <i_epik_Tot_Q>  (98) 
-1

>  <i_epik_Tot_abs_Q>  (98) 
1

>  <s_lp_Force_Field>  (98) 
OPLS3e

>  <r_lp_Energy>  (98) 
9.75929

>  <b_lp_Chiralities_Consistent>  (98) 
1

>  <s_lp_Variant>  (98) 
31:0-1

>  <s_i_glide_gridfile>  (98) 
pfpi4k_grid

>  <i_i_glide_lignum>  (98) 
6

>  <i_i_glide_rotatable_bonds>  (98) 
3

>  <r_i_docking_score>  (98) 
-3.49366

>  <r_i_glide_ligand_efficiency>  (98) 
-0.20551

>  <r_i_glide_ligand_efficiency_sa>  (98) 
-0.528423

>  <r_i_glide_ligand_efficiency_ln>  (98) 
-0.911419

>  <r_i_glide_gscore>  (98) 
-3.49366

>  <r_i_glide_lipo>  (98) 
-0.143981

>  <r_i_glide_hbond>  (98) 
-0.124828

>  <r_i_glide_metal>  (98) 
-0

>  <r_i_glide_rewards>  (98) 
-2.13065

>  <r_i_glide_evdw>  (98) 
-24.1283

>  <r_i_glide_ecoul>  (98) 
-2.42421

>  <r_i_glide_erotb>  (98) 
0.856005

>  <r_i_glide_esite>  (98) 
-0.380159

>  <r_i_glide_emodel>  (98) 
-34.3944

>  <r_i_glide_energy>  (98) 
-26.5526

>  <r_i_glide_einternal>  (98) 
1.65578

>  <r_i_glide_intrahb_reward>  (98) 
-0

>  <i_i_glide_confnum>  (98) 
2

>  <i_i_glide_posenum>  (98) 
28

>  <r_i_glide_eff_state_penalty>  (98) 
0

>  <ligand_id>  (98) 
31

>  <original_smiles>  (98) 
Cc1cc(SCc2nn[nH]n2)n2ncnc2n1

>  <smiles>  (98) 
[H]c1nc2nc(C([H])([H])[H])c([H])c(SC([H])([H])c3nnn[n-]3)n2n1

$$$$
32:0:0
     RDKit          3D

 59 63  0  0  1  0  0  0  0  0999 V2000
    2.1246   -0.2091    2.0914 C   0  0  0  0  0  0  0  0  0  0  0  0
    1.7734   -1.5888    1.8788 O   0  0  0  0  0  0  0  0  0  0  0  0
    2.6487   -2.5688    2.3648 C   0  0  2  0  0  0  0  0  0  0  0  0
    3.3773   -2.1610    3.4365 O   0  0  0  0  0  0  0  0  0  0  0  0
    4.3136   -3.0832    3.6748 C   0  0  2  0  0  0  0  0  0  0  0  0
    4.6842   -2.9225    5.1450 C   0  0  0  0  0  0  0  0  0  0  0  0
    5.4674   -2.5523    2.7436 C   0  0  0  0  0  0  0  0  0  0  0  0
    5.0664   -1.6865    1.4115 C   0  0  0  0  0  0  0  0  0  0  0  0
    3.9818   -2.2475    0.3382 C   0  0  1  0  0  0  0  0  0  0  0  0
    4.5940   -2.5119   -1.0655 C   0  0  1  0  0  0  0  0  0  0  0  0
    4.7158   -1.2261   -1.9047 C   0  0  0  0  0  0  0  0  0  0  0  0
    5.9378   -3.2598   -0.9993 C   0  0  0  0  0  0  0  0  0  0  0  0
    6.0386   -4.2293    0.1882 C   0  0  0  0  0  0  0  0  0  0  0  0
    4.6822   -4.4681    0.9392 C   0  0  1  0  0  0  0  0  0  0  0  0
    4.6103   -5.6597    1.8517 C   0  0  0  0  0  0  0  0  0  0  0  0
    3.2835   -5.2985    2.4489 C   0  0  2  0  0  0  0  0  0  0  0  0
    2.5364   -6.5127    3.0440 C   0  0  0  0  0  0  0  0  0  0  0  0
    2.0278   -7.5083    1.9753 C   0  0  0  0  0  0  0  0  0  0  0  0
    1.2324   -6.8288    0.8387 C   0  0  1  0  0  0  0  0  0  0  0  0
   -0.0326   -6.4271    1.3288 O   0  0  0  0  0  0  0  0  0  0  0  0
    2.0321   -5.6784    0.1661 C   0  0  1  0  0  0  0  0  0  0  0  0
    1.2804   -5.0916   -1.0451 C   0  0  0  0  0  0  0  0  0  0  0  0
    2.4272   -4.6242    1.2576 C   0  0  2  0  0  0  0  0  0  0  0  0
    3.4165   -3.4268    1.1316 C   0  0  1  0  0  0  0  0  0  0  0  0
    3.8010   -4.4626    3.5792 O   0  0  0  0  0  0  0  0  0  0  0  0
    1.2979    0.4300    1.7419 H   0  0  0  0  0  0  0  0  0  0  0  0
    3.0435    0.0797    1.5607 H   0  0  0  0  0  0  0  0  0  0  0  0
    2.2674    0.0296    3.1539 H   0  0  0  0  0  0  0  0  0  0  0  0
    1.9335   -3.1189    2.9719 H   0  0  0  0  0  0  0  0  0  0  0  0
    3.8356   -3.1996    5.7707 H   0  0  0  0  0  0  0  0  0  0  0  0
    4.9347   -1.8832    5.3592 H   0  0  0  0  0  0  0  0  0  0  0  0
    5.5346   -3.5578    5.4025 H   0  0  0  0  0  0  0  0  0  0  0  0
    5.9909   -1.8023    3.3282 H   0  0  0  0  0  0  0  0  0  0  0  0
    6.2060   -3.3369    2.6471 H   0  0  0  0  0  0  0  0  0  0  0  0
    4.7233   -0.7134    1.7743 H   0  0  0  0  0  0  0  0  0  0  0  0
    6.0066   -1.4474    0.8988 H   0  0  0  0  0  0  0  0  0  0  0  0
    3.2095   -1.5132    0.1297 H   0  0  0  0  0  0  0  0  0  0  0  0
    3.8901   -3.1568   -1.5952 H   0  0  0  0  0  0  0  0  0  0  0  0
    5.4019   -0.5169   -1.4431 H   0  0  0  0  0  0  0  0  0  0  0  0
    3.7562   -0.7235   -2.0160 H   0  0  0  0  0  0  0  0  0  0  0  0
    5.0812   -1.4489   -2.9025 H   0  0  0  0  0  0  0  0  0  0  0  0
    6.0848   -3.7960   -1.9280 H   0  0  0  0  0  0  0  0  0  0  0  0
    6.7574   -2.5418   -0.9396 H   0  0  0  0  0  0  0  0  0  0  0  0
    6.3853   -5.1936   -0.1893 H   0  0  0  0  0  0  0  0  0  0  0  0
    6.8514   -3.9140    0.8303 H   0  0  0  0  0  0  0  0  0  0  0  0
    4.3618   -4.9130    0.0103 H   0  0  0  0  0  0  0  0  0  0  0  0
    4.6104   -6.5854    1.2797 H   0  0  0  0  0  0  0  0  0  0  0  0
    5.4237   -5.7010    2.5716 H   0  0  0  0  0  0  0  0  0  0  0  0
    3.1911   -7.0336    3.7367 H   0  0  0  0  0  0  0  0  0  0  0  0
    1.6915   -6.1498    3.6263 H   0  0  0  0  0  0  0  0  0  0  0  0
    2.8777   -8.0301    1.5315 H   0  0  0  0  0  0  0  0  0  0  0  0
    1.4317   -8.2896    2.4480 H   0  0  0  0  0  0  0  0  0  0  0  0
    1.0059   -7.5897    0.0925 H   0  0  0  0  0  0  0  0  0  0  0  0
   -0.4828   -7.2208    1.5866 H   0  0  0  0  0  0  0  0  0  0  0  0
    2.8959   -6.2086   -0.2325 H   0  0  0  0  0  0  0  0  0  0  0  0
    0.2958   -4.7019   -0.8314 H   0  0  0  0  0  0  0  0  0  0  0  0
    1.0313   -5.8524   -1.7727 H   0  0  0  0  0  0  0  0  0  0  0  0
    1.8627   -4.2960   -1.5190 H   0  0  0  0  0  0  0  0  0  0  0  0
    1.4315   -4.3694    1.6049 H   0  0  0  0  0  0  0  0  0  0  0  0
  1  2  1  0
  1 26  1  0
  1 27  1  0
  1 28  1  0
  2  3  1  0
 24  3  1  1
  3  4  1  0
  3 29  1  1
  4  5  1  0
  5 25  1  0
  5  6  1  1
  5  7  1  0
  6 30  1  0
  6 31  1  0
  6 32  1  0
  7  8  1  0
  7 33  1  0
  7 34  1  0
  8  9  1  0
  8 35  1  0
  8 36  1  0
  9 24  1  0
  9 10  1  0
  9 37  1  6
 10 11  1  0
 10 12  1  0
 10 38  1  6
 11 39  1  0
 11 40  1  0
 11 41  1  0
 12 13  1  0
 12 42  1  0
 12 43  1  0
 13 14  1  0
 13 44  1  0
 13 45  1  0
 14 24  1  0
 14 15  1  0
 14 46  1  6
 15 16  1  0
 15 47  1  0
 15 48  1  0
 16 23  1  0
 16 17  1  0
 16 25  1  1
 17 18  1  0
 17 49  1  0
 17 50  1  0
 18 19  1  0
 18 51  1  0
 18 52  1  0
 19 20  1  0
 19 21  1  0
 19 53  1  6
 20 54  1  0
 21 22  1  0
 21 23  1  0
 21 55  1  6
 22 56  1  0
 22 57  1  0
 22 58  1  0
 23 24  1  0
 23 59  1  1
M  END
>  <i_m_ct_stereo_status>  (99) 
1

>  <s_m_source_file>  (99) 
/var/tmp/pbs.5076255.sched01/tmpa1vw3d_c/4207j0axjo.sdf

>  <i_m_source_file_index>  (99) 
7

>  <i_lp_mmshare_version>  (99) 
48012

>  <i_f3d_flags>  (99) 
0

>  <s_epik_input>  (99) 
W0NIM11PW0NAQEhdMU9bQ0BdKE8yKShbQ0gzXSlbQ0gyXVtDSDJdW0NAQEhdKFtDQEBIXShbQ0gzXSlbQ0gyXVtDSDJdW0NASF0zW0NIMl00KUMxM1tDQEhdKFtDQF0yNDUpW0NASF0oW0NIM10pW0NASF0oW09IXSlbQ0gyXVtDSDJdNQ==

>  <s_epik_cmdline>  (99) 
J2VwaWtfcHl0aG9uJywgJy1waHQnLCAnMi4wJywgJy1waCcsICc3LjAnLCAnLXRuJywgJzgnLCAnLW1hJywgJzIwMCcsICctaW1hZScsICc8aW5maWxlLm1hZT4nLCAnLW9tYWUnLCAnPG91dGZpbGUubWFlPic=

>  <r_lp_tautomer_probability>  (99) 
1

>  <r_epik_Ionization_Penalty>  (99) 
7.40011e-07

>  <r_epik_Ionization_Penalty_Charging>  (99) 
0

>  <r_epik_Ionization_Penalty_Neutral>  (99) 
7.40011e-07

>  <r_epik_State_Penalty>  (99) 
-0

>  <r_epik_Charging_Adjusted_Penalty>  (99) 
0

>  <i_epik_Tot_Q>  (99) 
0

>  <i_epik_Tot_abs_Q>  (99) 
0

>  <s_epik_Chemistry_Notes>  (99) 
This compound contains an acetal/aminal-like group ( X-CH(R)-Y where X, Y are N, S, or O) that may be acid/base labile, releasing an aldehyde.

>  <s_lp_Force_Field>  (99) 
OPLS3e

>  <r_lp_Energy>  (99) 
234.919

>  <b_lp_Chiralities_Consistent>  (99) 
1

>  <s_lp_Variant>  (99) 
32:0-1

>  <s_i_glide_gridfile>  (99) 
pfpi4k_grid

>  <i_i_glide_lignum>  (99) 
7

>  <i_i_glide_rotatable_bonds>  (99) 
2

>  <r_i_docking_score>  (99) 
-2.575

>  <r_i_glide_ligand_efficiency>  (99) 
-0.103

>  <r_i_glide_ligand_efficiency_sa>  (99) 
-0.301174

>  <r_i_glide_ligand_efficiency_ln>  (99) 
-0.610352

>  <r_i_glide_gscore>  (99) 
-2.575

>  <r_i_glide_lipo>  (99) 
-0.355045

>  <r_i_glide_hbond>  (99) 
-0.256439

>  <r_i_glide_metal>  (99) 
-0

>  <r_i_glide_rewards>  (99) 
-1.03276

>  <r_i_glide_evdw>  (99) 
-8.74453

>  <r_i_glide_ecoul>  (99) 
-3.25734

>  <r_i_glide_erotb>  (99) 
0

>  <r_i_glide_esite>  (99) 
-0.00492801

>  <r_i_glide_emodel>  (99) 
-11.1813

>  <r_i_glide_energy>  (99) 
-12.0019

>  <r_i_glide_einternal>  (99) 
3.6739

>  <r_i_glide_intrahb_reward>  (99) 
-0

>  <i_i_glide_confnum>  (99) 
2

>  <i_i_glide_posenum>  (99) 
27

>  <r_i_glide_eff_state_penalty>  (99) 
0

>  <ligand_id>  (99) 
32

>  <original_smiles>  (99) 
COC1OC2(C)CCC3C(C)CCC4CC5(CCC(O)C(C)C5C413)O2

>  <smiles>  (99) 
[H]OC1([H])C([H])([H])C([H])([H])C23OC4(C([H])([H])[H])OC([H])(OC([H])([H])[H])C5(C([H])(C([H])([H])C([H])([H])C([H])(C([H])([H])[H])C5([H])C([H])([H])C4([H])[H])C2([H])[H])C3([H])C1([H])C([H])([H])[H]

$$$$
32:0:1
     RDKit          3D

 59 63  0  0  1  0  0  0  0  0999 V2000
    0.8852   -1.5191    3.5516 C   0  0  0  0  0  0  0  0  0  0  0  0
    1.5832   -2.3015    2.5938 O   0  0  0  0  0  0  0  0  0  0  0  0
    2.9664   -2.4163    2.7746 C   0  0  2  0  0  0  0  0  0  0  0  0
    3.5504   -1.2085    2.9652 O   0  0  0  0  0  0  0  0  0  0  0  0
    4.8750   -1.3708    2.8351 C   0  0  2  0  0  0  0  0  0  0  0  0
    5.5252   -0.2620    3.6716 C   0  0  0  0  0  0  0  0  0  0  0  0
    5.0490   -1.0725    1.2876 C   0  0  0  0  0  0  0  0  0  0  0  0
    3.7554   -1.3679    0.3348 C   0  0  0  0  0  0  0  0  0  0  0  0
    3.0024   -2.7906    0.3263 C   0  0  1  0  0  0  0  0  0  0  0  0
    3.1417   -3.5662   -1.0102 C   0  0  1  0  0  0  0  0  0  0  0  0
    2.1613   -3.0722   -2.0925 C   0  0  0  0  0  0  0  0  0  0  0  0
    4.5758   -3.5660   -1.5573 C   0  0  0  0  0  0  0  0  0  0  0  0
    5.6462   -3.5553   -0.4568 C   0  0  0  0  0  0  0  0  0  0  0  0
    5.0902   -3.8155    0.9817 C   0  0  1  0  0  0  0  0  0  0  0  0
    6.0766   -4.1933    2.0352 C   0  0  0  0  0  0  0  0  0  0  0  0
    5.1101   -4.0712    3.1794 C   0  0  2  0  0  0  0  0  0  0  0  0
    5.5382   -4.8992    4.4080 C   0  0  0  0  0  0  0  0  0  0  0  0
    5.4530   -6.4256    4.1876 C   0  0  0  0  0  0  0  0  0  0  0  0
    4.0935   -6.8936    3.6230 C   0  0  1  0  0  0  0  0  0  0  0  0
    3.1082   -6.7514    4.6322 O   0  0  0  0  0  0  0  0  0  0  0  0
    3.7166   -6.1325    2.3208 C   0  0  1  0  0  0  0  0  0  0  0  0
    2.4026   -6.6440    1.7140 C   0  0  0  0  0  0  0  0  0  0  0  0
    3.6848   -4.5916    2.6123 C   0  0  2  0  0  0  0  0  0  0  0  0
    3.6227   -3.4195    1.5840 C   0  0  1  0  0  0  0  0  0  0  0  0
    5.3550   -2.6217    3.4639 O   0  0  0  0  0  0  0  0  0  0  0  0
   -0.1724   -1.5169    3.2882 H   0  0  0  0  0  0  0  0  0  0  0  0
    1.2212   -0.4800    3.5651 H   0  0  0  0  0  0  0  0  0  0  0  0
    0.9775   -1.9454    4.5499 H   0  0  0  0  0  0  0  0  0  0  0  0
    3.0349   -2.7338    3.8202 H   0  0  0  0  0  0  0  0  0  0  0  0
    5.3193   -0.4338    4.7299 H   0  0  0  0  0  0  0  0  0  0  0  0
    5.1171    0.7099    3.4011 H   0  0  0  0  0  0  0  0  0  0  0  0
    6.6039   -0.2542    3.5153 H   0  0  0  0  0  0  0  0  0  0  0  0
    5.1630    0.0059    1.2089 H   0  0  0  0  0  0  0  0  0  0  0  0
    6.0280   -1.4068    0.9740 H   0  0  0  0  0  0  0  0  0  0  0  0
    2.9970   -0.6258    0.5903 H   0  0  0  0  0  0  0  0  0  0  0  0
    4.0210   -1.0893   -0.6835 H   0  0  0  0  0  0  0  0  0  0  0  0
    1.9282   -2.6509    0.4235 H   0  0  0  0  0  0  0  0  0  0  0  0
    2.8724   -4.5991   -0.7972 H   0  0  0  0  0  0  0  0  0  0  0  0
    2.3524   -2.0340   -2.3631 H   0  0  0  0  0  0  0  0  0  0  0  0
    1.1250   -3.1381   -1.7611 H   0  0  0  0  0  0  0  0  0  0  0  0
    2.2383   -3.6708   -3.0007 H   0  0  0  0  0  0  0  0  0  0  0  0
    4.7078   -4.4409   -2.1927 H   0  0  0  0  0  0  0  0  0  0  0  0
    4.7289   -2.7088   -2.2146 H   0  0  0  0  0  0  0  0  0  0  0  0
    6.3612   -4.3441   -0.6923 H   0  0  0  0  0  0  0  0  0  0  0  0
    6.2463   -2.6613   -0.5661 H   0  0  0  0  0  0  0  0  0  0  0  0
    4.8261   -4.7920    0.5993 H   0  0  0  0  0  0  0  0  0  0  0  0
    6.4661   -5.1969    1.8665 H   0  0  0  0  0  0  0  0  0  0  0  0
    6.9209   -3.5048    2.0844 H   0  0  0  0  0  0  0  0  0  0  0  0
    6.5603   -4.6520    4.6915 H   0  0  0  0  0  0  0  0  0  0  0  0
    4.9097   -4.6160    5.2523 H   0  0  0  0  0  0  0  0  0  0  0  0
    6.2380   -6.7431    3.5023 H   0  0  0  0  0  0  0  0  0  0  0  0
    5.6683   -6.9434    5.1244 H   0  0  0  0  0  0  0  0  0  0  0  0
    4.1618   -7.9624    3.3993 H   0  0  0  0  0  0  0  0  0  0  0  0
    3.3210   -7.3472    5.3344 H   0  0  0  0  0  0  0  0  0  0  0  0
    4.4980   -6.4384    1.6327 H   0  0  0  0  0  0  0  0  0  0  0  0
    1.5524   -6.4440    2.3668 H   0  0  0  0  0  0  0  0  0  0  0  0
    2.4530   -7.7217    1.5488 H   0  0  0  0  0  0  0  0  0  0  0  0
    2.2119   -6.1703    0.7519 H   0  0  0  0  0  0  0  0  0  0  0  0
    2.8757   -4.5999    3.3449 H   0  0  0  0  0  0  0  0  0  0  0  0
  1  2  1  0
  1 26  1  0
  1 27  1  0
  1 28  1  0
  2  3  1  0
 24  3  1  1
  3  4  1  0
  3 29  1  1
  4  5  1  0
  5 25  1  0
  5  6  1  1
  5  7  1  0
  6 30  1  0
  6 31  1  0
  6 32  1  0
  7  8  1  0
  7 33  1  0
  7 34  1  0
  8  9  1  0
  8 35  1  0
  8 36  1  0
  9 24  1  0
  9 10  1  0
  9 37  1  1
 10 11  1  0
 10 12  1  0
 10 38  1  1
 11 39  1  0
 11 40  1  0
 11 41  1  0
 12 13  1  0
 12 42  1  0
 12 43  1  0
 13 14  1  0
 13 44  1  0
 13 45  1  0
 14 24  1  0
 14 15  1  0
 14 46  1  6
 15 16  1  0
 15 47  1  0
 15 48  1  0
 16 23  1  0
 16 17  1  0
 16 25  1  1
 17 18  1  0
 17 49  1  0
 17 50  1  0
 18 19  1  0
 18 51  1  0
 18 52  1  0
 19 20  1  0
 19 21  1  0
 19 53  1  6
 20 54  1  0
 21 22  1  0
 21 23  1  0
 21 55  1  6
 22 56  1  0
 22 57  1  0
 22 58  1  0
 23 24  1  0
 23 59  1  1
M  END
>  <i_m_ct_stereo_status>  (100) 
1

>  <s_m_source_file>  (100) 
/var/tmp/pbs.5076255.sched01/tmpa1vw3d_c/4207j0axjo.sdf

>  <i_m_source_file_index>  (100) 
7

>  <i_lp_mmshare_version>  (100) 
48012

>  <i_f3d_flags>  (100) 
0

>  <s_epik_input>  (100) 
W0NIM11PW0NAQEhdMU9bQ0BdKE8yKShbQ0gzXSlbQ0gyXVtDSDJdW0NAQEhdKFtDQEBIXShbQ0gzXSlbQ0gyXVtDSDJdW0NASF0zW0NIMl00KUMxM1tDQEhdKFtDQF0yNDUpW0NASF0oW0NIM10pW0NASF0oW09IXSlbQ0gyXVtDSDJdNQ==

>  <s_epik_cmdline>  (100) 
J2VwaWtfcHl0aG9uJywgJy1waHQnLCAnMi4wJywgJy1waCcsICc3LjAnLCAnLXRuJywgJzgnLCAnLW1hJywgJzIwMCcsICctaW1hZScsICc8aW5maWxlLm1hZT4nLCAnLW9tYWUnLCAnPG91dGZpbGUubWFlPic=

>  <r_lp_tautomer_probability>  (100) 
1

>  <r_epik_Ionization_Penalty>  (100) 
7.40011e-07

>  <r_epik_Ionization_Penalty_Charging>  (100) 
0

>  <r_epik_Ionization_Penalty_Neutral>  (100) 
7.40011e-07

>  <r_epik_State_Penalty>  (100) 
-0

>  <r_epik_Charging_Adjusted_Penalty>  (100) 
0

>  <i_epik_Tot_Q>  (100) 
0

>  <i_epik_Tot_abs_Q>  (100) 
0

>  <s_epik_Chemistry_Notes>  (100) 
This compound contains an acetal/aminal-like group ( X-CH(R)-Y where X, Y are N, S, or O) that may be acid/base labile, releasing an aldehyde.

>  <s_lp_Force_Field>  (100) 
OPLS3e

>  <r_lp_Energy>  (100) 
234.919

>  <b_lp_Chiralities_Consistent>  (100) 
1

>  <s_lp_Variant>  (100) 
32:0-1

>  <s_i_glide_gridfile>  (100) 
pfpi4k_grid

>  <i_i_glide_lignum>  (100) 
7

>  <i_i_glide_rotatable_bonds>  (100) 
2

>  <r_i_docking_score>  (100) 
-2.33006

>  <r_i_glide_ligand_efficiency>  (100) 
-0.0932024

>  <r_i_glide_ligand_efficiency_sa>  (100) 
-0.272526

>  <r_i_glide_ligand_efficiency_ln>  (100) 
-0.552294

>  <r_i_glide_gscore>  (100) 
-2.33006

>  <r_i_glide_lipo>  (100) 
-0.529147

>  <r_i_glide_hbond>  (100) 
0

>  <r_i_glide_metal>  (100) 
-0

>  <r_i_glide_rewards>  (100) 
-1.12098

>  <r_i_glide_evdw>  (100) 
-16.6701

>  <r_i_glide_ecoul>  (100) 
1.03027

>  <r_i_glide_erotb>  (100) 
0

>  <r_i_glide_esite>  (100) 
-0.000970004

>  <r_i_glide_emodel>  (100) 
-17.7172

>  <r_i_glide_energy>  (100) 
-15.6398

>  <r_i_glide_einternal>  (100) 
0.378199

>  <r_i_glide_intrahb_reward>  (100) 
-0

>  <i_i_glide_confnum>  (100) 
1

>  <i_i_glide_posenum>  (100) 
17

>  <r_i_glide_eff_state_penalty>  (100) 
0

>  <ligand_id>  (100) 
32

>  <original_smiles>  (100) 
COC1OC2(C)CCC3C(C)CCC4CC5(CCC(O)C(C)C5C413)O2

>  <smiles>  (100) 
[H]OC1([H])C([H])([H])C([H])([H])C23OC4(C([H])([H])[H])OC([H])(OC([H])([H])[H])C5(C([H])(C([H])([H])C([H])([H])C([H])(C([H])([H])[H])C5([H])C([H])([H])C4([H])[H])C2([H])[H])C3([H])C1([H])C([H])([H])[H]

$$$$
33:1:0
     RDKit          3D

 99106  0  0  1  0  0  0  0  0999 V2000
    6.3146   -3.1121   -0.7794 C   0  0  0  0  0  0  0  0  0  0  0  0
    6.7396   -1.9379   -0.1046 O   0  0  0  0  0  0  0  0  0  0  0  0
    6.6454   -1.9899    1.3105 C   0  0  0  0  0  0  0  0  0  0  0  0
    5.2007   -2.1947    1.8472 C   0  0  2  0  0  0  0  0  0  0  0  0
    4.1844   -1.4378    0.9548 C   0  0  0  0  0  0  0  0  0  0  0  0
    3.2373   -0.5917    1.6886 N   0  0  0  0  0  0  0  0  0  0  0  0
    1.9820   -1.3073    2.0145 C   0  0  0  0  0  0  0  0  0  0  0  0
    1.9150   -2.4189    3.1132 C   0  0  1  0  0  0  0  0  0  0  0  0
    2.8894   -3.5690    3.1168 C   0  0  0  0  0  0  0  0  0  0  0  0
    3.7713   -2.6845    4.0480 C   0  0  1  0  0  0  0  0  0  0  0  0
    4.3520   -3.4708    5.1001 O   0  0  0  0  0  0  0  0  0  0  0  0
    5.0489   -4.6595    4.7365 C   0  0  0  0  0  0  0  0  0  0  0  0
    4.9539   -1.8857    3.3682 C   0  0  2  0  0  0  0  0  0  0  0  0
    4.9396   -0.3504    3.5175 C   0  0  1  0  0  0  0  0  0  0  0  0
    3.9149    0.3652    2.6161 C   0  0  2  0  0  0  0  0  0  0  0  0
    3.1411    1.6257    3.2322 C   0  0  1  0  0  0  0  0  0  0  0  0
    1.8006    1.6606    2.7989 O   0  0  0  0  0  0  0  0  0  0  0  0
    1.6393    2.1073    1.4874 C   0  0  0  0  0  0  0  0  0  0  0  0
    3.2964    1.9836    4.7708 C   0  0  1  0  0  0  0  0  0  0  0  0
    2.0336    2.2813    5.6876 C   0  0  1  0  0  0  0  0  0  0  0  0
    0.5723    2.4095    5.2010 C   0  0  1  0  0  0  0  0  0  0  0  0
    0.2517    3.6831    4.3770 C   0  0  0  0  0  0  0  0  0  0  0  0
   -1.1407    3.9058    4.2886 O   0  0  0  0  0  0  0  0  0  0  0  0
   -0.0502    1.1219    4.6033 C   0  0  1  0  0  0  0  0  0  0  0  0
    0.5302   -0.2886    4.7358 C   0  0  1  0  0  0  0  0  0  0  0  0
    2.0197   -0.6844    5.1129 C   0  0  1  0  0  0  0  0  0  0  0  0
    2.9182    0.0683    6.2199 C   0  0  2  0  0  0  0  0  0  0  0  0
    3.3134   -0.9739    7.2999 C   0  0  0  0  0  0  0  0  0  0  0  0
    4.0957   -0.3761    8.3310 O   0  0  0  0  0  0  0  0  0  0  0  0
    4.5253   -1.2901    9.3335 C   0  0  0  0  0  0  0  0  0  0  0  0
    2.0793    1.2117    6.7932 C   0  0  1  0  0  0  0  0  0  0  0  0
    2.3152    1.7299    8.0732 O   0  0  0  0  0  0  0  0  0  0  0  0
    4.1079    0.9837    5.6441 C   0  0  2  0  0  0  0  0  0  0  0  0
    4.8964    1.8522    6.7412 C   0  0  0  0  0  0  0  0  0  0  0  0
    6.0367    2.5547    6.3240 O   0  0  0  0  0  0  0  0  0  0  0  0
    5.2499    0.2470    4.8834 C   0  0  1  0  0  0  0  0  0  0  0  0
    5.9283   -0.6805    5.7348 O   0  0  0  0  0  0  0  0  0  0  0  0
    7.2071   -0.2602    6.2298 C   0  0  0  0  0  0  0  0  0  0  0  0
    2.3769   -2.1150    4.5680 C   0  0  1  0  0  0  0  0  0  0  0  0
    1.8981   -3.0934    5.5030 O   0  0  0  0  0  0  0  0  0  0  0  0
    0.5102   -3.2022    5.7955 C   0  0  0  0  0  0  0  0  0  0  0  0
   -0.7850    0.0547    5.4228 C   0  0  0  0  0  0  0  0  0  0  0  0
   -1.0156    0.1536    6.9070 C   0  0  0  0  0  0  0  0  0  0  0  0
   -2.0923   -0.5062    4.7939 C   0  0  0  0  0  0  0  0  0  0  0  0
    6.3735   -2.9457   -1.8562 H   0  0  0  0  0  0  0  0  0  0  0  0
    5.2788   -3.3714   -0.5638 H   0  0  0  0  0  0  0  0  0  0  0  0
    6.9416   -3.9618   -0.5098 H   0  0  0  0  0  0  0  0  0  0  0  0
    7.2714   -2.8130    1.6489 H   0  0  0  0  0  0  0  0  0  0  0  0
    7.0984   -1.0675    1.6712 H   0  0  0  0  0  0  0  0  0  0  0  0
    5.0877   -3.2706    1.7108 H   0  0  0  0  0  0  0  0  0  0  0  0
    4.7169   -0.7800    0.2648 H   0  0  0  0  0  0  0  0  0  0  0  0
    3.6415   -2.1349    0.3230 H   0  0  0  0  0  0  0  0  0  0  0  0
    1.2200   -0.5454    2.1854 H   0  0  0  0  0  0  0  0  0  0  0  0
    1.6304   -1.7601    1.0860 H   0  0  0  0  0  0  0  0  0  0  0  0
    0.9274   -2.8505    3.0849 H   0  0  0  0  0  0  0  0  0  0  0  0
    2.4656   -4.4466    3.6077 H   0  0  0  0  0  0  0  0  0  0  0  0
    3.2120   -3.8533    2.1215 H   0  0  0  0  0  0  0  0  0  0  0  0
    5.5115   -5.0763    5.6297 H   0  0  0  0  0  0  0  0  0  0  0  0
    5.8374   -4.4766    4.0089 H   0  0  0  0  0  0  0  0  0  0  0  0
    4.3847   -5.4263    4.3399 H   0  0  0  0  0  0  0  0  0  0  0  0
    5.8522   -2.2298    3.8592 H   0  0  0  0  0  0  0  0  0  0  0  0
    5.8690   -0.0950    3.0212 H   0  0  0  0  0  0  0  0  0  0  0  0
    4.5457    0.8700    1.8924 H   0  0  0  0  0  0  0  0  0  0  0  0
    3.5389    2.5374    2.8201 H   0  0  0  0  0  0  0  0  0  0  0  0
    0.6115    2.0776    1.1412 H   0  0  0  0  0  0  0  0  0  0  0  0
    2.2212    1.4665    0.8764 H   0  0  0  0  0  0  0  0  0  0  0  0
    2.0432    3.1043    1.3719 H   0  0  0  0  0  0  0  0  0  0  0  0
    3.8729    2.9117    4.7630 H   0  0  0  0  0  0  0  0  0  0  0  0
    2.2463    3.2425    6.1603 H   0  0  0  0  0  0  0  0  0  0  0  0
    0.0078    2.5963    6.1088 H   0  0  0  0  0  0  0  0  0  0  0  0
    0.6964    4.5401    4.8738 H   0  0  0  0  0  0  0  0  0  0  0  0
    0.6588    3.6697    3.3673 H   0  0  0  0  0  0  0  0  0  0  0  0
   -1.4832    3.3368    3.6027 H   0  0  0  0  0  0  0  0  0  0  0  0
   -0.5022    1.3210    3.6239 H   0  0  0  0  0  0  0  0  0  0  0  0
    0.2133   -0.9113    3.9150 H   0  0  0  0  0  0  0  0  0  0  0  0
    2.3685   -0.2131    4.2717 H   0  0  0  0  0  0  0  0  0  0  0  0
    2.4075   -1.4177    7.7240 H   0  0  0  0  0  0  0  0  0  0  0  0
    3.8792   -1.7983    6.8533 H   0  0  0  0  0  0  0  0  0  0  0  0
    5.1774   -0.7332   10.0164 H   0  0  0  0  0  0  0  0  0  0  0  0
    5.1120   -2.1195    8.9168 H   0  0  0  0  0  0  0  0  0  0  0  0
    3.6873   -1.6931    9.9189 H   0  0  0  0  0  0  0  0  0  0  0  0
    1.1514    0.8000    7.0219 H   0  0  0  0  0  0  0  0  0  0  0  0
    3.2327    2.0342    8.1097 H   0  0  0  0  0  0  0  0  0  0  0  0
    4.2989    2.6333    7.2157 H   0  0  0  0  0  0  0  0  0  0  0  0
    5.2720    1.2121    7.5271 H   0  0  0  0  0  0  0  0  0  0  0  0
    6.5219    2.8062    7.1158 H   0  0  0  0  0  0  0  0  0  0  0  0
    5.9730    1.0234    4.6133 H   0  0  0  0  0  0  0  0  0  0  0  0
    7.6625   -1.1128    6.7550 H   0  0  0  0  0  0  0  0  0  0  0  0
    7.1488    0.6191    6.8915 H   0  0  0  0  0  0  0  0  0  0  0  0
    7.8770    0.0250    5.4131 H   0  0  0  0  0  0  0  0  0  0  0  0
    0.3501   -4.0922    6.4000 H   0  0  0  0  0  0  0  0  0  0  0  0
   -0.1234   -3.2861    4.9131 H   0  0  0  0  0  0  0  0  0  0  0  0
    0.1751   -2.3645    6.3949 H   0  0  0  0  0  0  0  0  0  0  0  0
   -2.0601   -0.0324    7.0276 H   0  0  0  0  0  0  0  0  0  0  0  0
   -0.8864    1.1493    7.3090 H   0  0  0  0  0  0  0  0  0  0  0  0
   -0.4009   -0.5619    7.4503 H   0  0  0  0  0  0  0  0  0  0  0  0
   -2.2675   -1.5234    5.1650 H   0  0  0  0  0  0  0  0  0  0  0  0
   -2.0026   -0.5246    3.7022 H   0  0  0  0  0  0  0  0  0  0  0  0
   -2.9885    0.0757    5.0464 H   0  0  0  0  0  0  0  0  0  0  0  0
  1  2  1  0
  1 45  1  0
  1 46  1  0
  1 47  1  0
  2  3  1  0
  3  4  1  0
  3 48  1  0
  3 49  1  0
  4 13  1  0
  4  5  1  0
  4 50  1  1
  5  6  1  0
  5 51  1  0
  5 52  1  0
  6 15  1  0
  6  7  1  0
  7  8  1  0
  7 53  1  0
  7 54  1  0
  8 39  1  0
  8  9  1  0
  8 55  1  1
  9 10  1  0
  9 56  1  0
  9 57  1  0
 10 39  1  0
 10 11  1  1
 10 13  1  0
 11 12  1  0
 12 58  1  0
 12 59  1  0
 12 60  1  0
 13 14  1  0
 13 61  1  1
 14 36  1  0
 14 15  1  0
 14 62  1  6
 15 16  1  0
 15 63  1  6
 16 17  1  0
 16 19  1  0
 16 64  1  6
 17 18  1  0
 18 65  1  0
 18 66  1  0
 18 67  1  0
 19 33  1  0
 19 20  1  0
 19 68  1  6
 20 31  1  0
 20 21  1  0
 20 69  1  1
 21 22  1  0
 21 24  1  0
 21 70  1  1
 22 23  1  0
 22 71  1  0
 22 72  1  0
 23 73  1  0
 24 42  1  0
 24 25  1  0
 24 74  1  6
 25 26  1  0
 25 42  1  0
 25 75  1  6
 26 27  1  0
 26 39  1  0
 26 76  1  6
 27 28  1  1
 27 31  1  0
 27 33  1  0
 28 29  1  0
 28 77  1  0
 28 78  1  0
 29 30  1  0
 30 79  1  0
 30 80  1  0
 30 81  1  0
 31 32  1  0
 31 82  1  1
 32 83  1  0
 33 34  1  1
 33 36  1  0
 34 35  1  0
 34 84  1  0
 34 85  1  0
 35 86  1  0
 36 37  1  0
 36 87  1  6
 37 38  1  0
 38 88  1  0
 38 89  1  0
 38 90  1  0
 39 40  1  1
 40 41  1  0
 41 91  1  0
 41 92  1  0
 41 93  1  0
 42 43  1  0
 42 44  1  0
 43 94  1  0
 43 95  1  0
 43 96  1  0
 44 97  1  0
 44 98  1  0
 44 99  1  0
M  END
>  <i_m_ct_stereo_status>  (101) 
1

>  <s_m_source_file>  (101) 
/var/tmp/pbs.5076255.sched01/tmpa1vw3d_c/4207j0axjo.sdf

>  <i_m_source_file_index>  (101) 
9

>  <i_lp_mmshare_version>  (101) 
48012

>  <i_f3d_flags>  (101) 
0

>  <s_epik_input>  (101) 
W0NIM11PW0NAQF0xMltDQEBIXTNbQ0BIXTRbQ0BIXTVOKFtDSDJdW0NASF0zW0NIMl1PW0NIM10pW0NIMl1bQ0BASF0oW0NIMl0xKVtDQF0yKE9bQ0gzXSlbQ0BIXTZbQ0BASF03W0NAQEhdKEM3KFtDSDNdKVtDSDNdKVtDQEhdKFtDSDJdW09IXSlbQ0BASF04W0NASF0oW0NAQEhdNU9bQ0gzXSlbQ0BdKFtDSDJdW09IXSkoW0NASF00T1tDSDNdKVtDQF02KFtDQEhdOFtPSF0pW0NIMl1PW0NIM10=

>  <s_epik_cmdline>  (101) 
J2VwaWtfcHl0aG9uJywgJy1waHQnLCAnMi4wJywgJy1waCcsICc3LjAnLCAnLXRuJywgJzgnLCAnLW1hJywgJzIwMCcsICctaW1hZScsICc8aW5maWxlLm1hZT4nLCAnLW9tYWUnLCAnPG91dGZpbGUubWFlPic=

>  <r_epik_Ionization_Penalty>  (101) 
0.78854

>  <r_epik_Ionization_Penalty_Charging>  (101) 
0

>  <r_epik_Ionization_Penalty_Neutral>  (101) 
0.78854

>  <r_epik_State_Penalty>  (101) 
0.818753

>  <r_epik_Charging_Adjusted_Penalty>  (101) 
0.818753

>  <i_epik_Tot_Q>  (101) 
0

>  <i_epik_Tot_abs_Q>  (101) 
0

>  <s_lp_Force_Field>  (101) 
OPLS3e

>  <r_lp_Energy>  (101) 
235.034

>  <b_lp_Chiralities_Consistent>  (101) 
1

>  <s_lp_Variant>  (101) 
33:0-2

>  <s_i_glide_gridfile>  (101) 
pfpi4k_grid

>  <i_i_glide_lignum>  (101) 
9

>  <i_i_glide_rotatable_bonds>  (101) 
13

>  <r_i_docking_score>  (101) 
-1.61737

>  <r_i_glide_ligand_efficiency>  (101) 
-0.0367583

>  <r_i_glide_ligand_efficiency_sa>  (101) 
-0.12977

>  <r_i_glide_ligand_efficiency_ln>  (101) 
-0.338065

>  <r_i_glide_gscore>  (101) 
-1.61737

>  <r_i_glide_lipo>  (101) 
-0.555017

>  <r_i_glide_hbond>  (101) 
-0.0478573

>  <r_i_glide_metal>  (101) 
-0

>  <r_i_glide_rewards>  (101) 
0

>  <r_i_glide_evdw>  (101) 
-12.1827

>  <r_i_glide_ecoul>  (101) 
-3.27154

>  <r_i_glide_erotb>  (101) 
0.0853735

>  <r_i_glide_esite>  (101) 
0

>  <r_i_glide_emodel>  (101) 
-8.42326

>  <r_i_glide_energy>  (101) 
-15.4542

>  <r_i_glide_einternal>  (101) 
11.1045

>  <r_i_glide_intrahb_reward>  (101) 
-0

>  <i_i_glide_confnum>  (101) 
5

>  <i_i_glide_posenum>  (101) 
14

>  <r_i_glide_eff_state_penalty>  (101) 
0

>  <ligand_id>  (101) 
33

>  <original_smiles>  (101) 
COCC1CN2CC3CC4(OC)C1C1C2C(OC)C2C5C(CO)C6C(C(C(COC)(C5O)C2(CO)C1OC)C34OC)C6(C)C

>  <smiles>  (101) 
[H]OC([H])([H])C1([H])C2([H])C([H])(O[H])C3(C([H])([H])OC([H])([H])[H])C([H])(C4([H])C1([H])C4(C([H])([H])[H])C([H])([H])[H])C1(OC([H])([H])[H])C4([H])C([H])([H])N5C([H])([H])C([H])(C([H])([H])OC([H])([H])[H])C([H])(C6([H])C([H])(OC([H])([H])[H])C3(C([H])([H])O[H])C2([H])C([H])(OC([H])([H])[H])C56[H])C1(OC([H])([H])[H])C4([H])[H]

$$$$
34:0:0
     RDKit          3D

 44 46  0  0  1  0  0  0  0  0999 V2000
   -0.7616   -0.2581    4.1651 C   0  0  0  0  0  0  0  0  0  0  0  0
   -0.9690    0.9020    3.1827 C   0  0  0  0  0  0  0  0  0  0  0  0
    0.3334    1.5935    2.7393 C   0  0  0  0  0  0  0  0  0  0  0  0
    1.2810    0.6933    1.9274 C   0  0  0  0  0  0  0  0  0  0  0  0
    2.3891   -0.3079    2.9630 S   0  0  0  0  0  0  0  0  0  0  0  0
    3.3032   -1.2033    1.6771 C   0  0  0  0  0  0  0  0  0  0  0  0
    2.6150   -2.4957    1.1939 C   0  0  2  0  0  0  0  0  0  0  0  0
    2.5982   -3.4941    2.2214 O   0  0  0  0  0  0  0  0  0  0  0  0
    3.0958   -4.7128    1.7374 C   0  0  1  0  0  0  0  0  0  0  0  0
    2.2419   -5.8293    2.2369 N   0  0  0  0  0  0  0  0  0  0  0  0
    1.0470   -5.7649    2.9218 C   0  0  0  0  0  0  0  0  0  0  0  0
    0.4893   -6.9192    3.1803 N   0  0  0  0  0  0  0  0  0  0  0  0
    1.4028   -7.8485    2.6867 C   0  0  0  0  0  0  0  0  0  0  0  0
    1.4717   -9.2661    2.6701 C   0  0  0  0  0  0  0  0  0  0  0  0
    0.5317  -10.0441    3.2191 N   0  0  0  0  0  0  0  0  0  0  0  0
    2.5341   -9.8594    2.0907 N   0  0  0  0  0  0  0  0  0  0  0  0
    3.4905   -9.1064    1.5350 C   0  0  0  0  0  0  0  0  0  0  0  0
    3.5714   -7.7698    1.4774 N   0  0  0  0  0  0  0  0  0  0  0  0
    2.4970   -7.1770    2.0782 C   0  0  0  0  0  0  0  0  0  0  0  0
    3.0686   -4.6304    0.2121 C   0  0  1  0  0  0  0  0  0  0  0  0
    1.8217   -5.0294   -0.3368 O   0  0  0  0  0  0  0  0  0  0  0  0
    3.3671   -3.1536    0.0294 C   0  0  1  0  0  0  0  0  0  0  0  0
    3.0065   -2.6251   -1.2359 O   0  0  0  0  0  0  0  0  0  0  0  0
    0.6383  -11.0433    3.1893 H   0  0  0  0  0  0  0  0  0  0  0  0
   -1.7100   -0.6942    4.4769 H   0  0  0  0  0  0  0  0  0  0  0  0
   -0.2244    0.0847    5.0503 H   0  0  0  0  0  0  0  0  0  0  0  0
   -0.1863   -1.0615    3.7079 H   0  0  0  0  0  0  0  0  0  0  0  0
   -1.5072    0.5527    2.3010 H   0  0  0  0  0  0  0  0  0  0  0  0
   -1.6156    1.6462    3.6478 H   0  0  0  0  0  0  0  0  0  0  0  0
    0.0490    2.4276    2.0975 H   0  0  0  0  0  0  0  0  0  0  0  0
    0.8572    2.0392    3.5860 H   0  0  0  0  0  0  0  0  0  0  0  0
    0.6974    0.0434    1.2791 H   0  0  0  0  0  0  0  0  0  0  0  0
    1.9124    1.3105    1.2870 H   0  0  0  0  0  0  0  0  0  0  0  0
    3.4555   -0.5204    0.8383 H   0  0  0  0  0  0  0  0  0  0  0  0
    4.2874   -1.4452    2.0776 H   0  0  0  0  0  0  0  0  0  0  0  0
    1.5840   -2.2863    0.9101 H   0  0  0  0  0  0  0  0  0  0  0  0
    4.0915   -4.8927    2.1464 H   0  0  0  0  0  0  0  0  0  0  0  0
    0.5997   -4.8188    3.2063 H   0  0  0  0  0  0  0  0  0  0  0  0
   -0.2531   -9.6135    3.6763 H   0  0  0  0  0  0  0  0  0  0  0  0
    4.2961   -9.6647    1.0746 H   0  0  0  0  0  0  0  0  0  0  0  0
    3.8515   -5.2494   -0.2128 H   0  0  0  0  0  0  0  0  0  0  0  0
    1.9555   -5.0266   -1.2854 H   0  0  0  0  0  0  0  0  0  0  0  0
    4.4379   -2.9988    0.1716 H   0  0  0  0  0  0  0  0  0  0  0  0
    2.2528   -2.0489   -1.1335 H   0  0  0  0  0  0  0  0  0  0  0  0
  1  2  1  0
  1 25  1  0
  1 26  1  0
  1 27  1  0
  2  3  1  0
  2 28  1  0
  2 29  1  0
  3  4  1  0
  3 30  1  0
  3 31  1  0
  4  5  1  0
  4 32  1  0
  4 33  1  0
  5  6  1  0
  6  7  1  0
  6 34  1  0
  6 35  1  0
  7 22  1  0
  7  8  1  0
  7 36  1  6
  8  9  1  0
  9 20  1  0
  9 37  1  1
  9 10  1  0
 10 11  1  0
 10 19  1  0
 11 12  2  0
 11 38  1  0
 12 13  1  0
 13 14  1  0
 13 19  2  0
 14 16  2  0
 14 15  1  0
 15 39  1  0
 15 24  1  0
 16 17  1  0
 17 40  1  0
 17 18  2  0
 18 19  1  0
 20 21  1  0
 20 22  1  0
 20 41  1  6
 21 42  1  0
 22 23  1  0
 22 43  1  1
 23 44  1  0
M  END
>  <i_m_ct_stereo_status>  (102) 
1

>  <s_m_source_file>  (102) 
/var/tmp/pbs.5076255.sched01/tmpa1vw3d_c/4207j0axjo.sdf

>  <i_m_source_file_index>  (102) 
10

>  <i_lp_mmshare_version>  (102) 
48012

>  <i_f3d_flags>  (102) 
0

>  <s_epik_input>  (102) 
W0NIM11bQ0gyXVtDSDJdW0NIMl1TW0NIMl1bQ0BASF0xT1tDQEhdKFtDQEBIXShbT0hdKVtDQEhdMVtPSF0pbihbY0hdbjIpYyhjMjMpbltjSF1bbkhdY1wzPU5cW0hd

>  <s_epik_cmdline>  (102) 
J2VwaWtfcHl0aG9uJywgJy1waHQnLCAnMi4wJywgJy1waCcsICc3LjAnLCAnLXRuJywgJzgnLCAnLW1hJywgJzIwMCcsICctaW1hZScsICc8aW5maWxlLm1hZT4nLCAnLW9tYWUnLCAnPG91dGZpbGUubWFlPic=

>  <r_lp_tautomer_probability>  (102) 
1

>  <r_epik_Ionization_Penalty>  (102) 
0.000420615

>  <r_epik_Ionization_Penalty_Charging>  (102) 
0

>  <r_epik_Ionization_Penalty_Neutral>  (102) 
0.000420615

>  <r_epik_State_Penalty>  (102) 
-0

>  <r_epik_Charging_Adjusted_Penalty>  (102) 
0

>  <i_epik_Tot_Q>  (102) 
0

>  <i_epik_Tot_abs_Q>  (102) 
0

>  <s_epik_Chemistry_Notes>  (102) 
This compound contains an acetal/aminal-like group ( X-CH(R)-Y where X, Y are N, S, or O) that may be acid/base labile, releasing an aldehyde.

>  <s_lp_Force_Field>  (102) 
OPLS3e

>  <r_lp_Energy>  (102) 
14.6178

>  <b_lp_Chiralities_Consistent>  (102) 
1

>  <s_lp_Variant>  (102) 
34:0-1

>  <s_i_glide_gridfile>  (102) 
pfpi4k_grid

>  <i_i_glide_lignum>  (102) 
10

>  <i_i_glide_rotatable_bonds>  (102) 
8

>  <r_i_docking_score>  (102) 
-3.10917

>  <r_i_glide_ligand_efficiency>  (102) 
-0.135181

>  <r_i_glide_ligand_efficiency_sa>  (102) 
-0.384438

>  <r_i_glide_ligand_efficiency_ln>  (102) 
-0.751825

>  <r_i_glide_gscore>  (102) 
-3.10917

>  <r_i_glide_lipo>  (102) 
-0.0370308

>  <r_i_glide_hbond>  (102) 
0

>  <r_i_glide_metal>  (102) 
-0

>  <r_i_glide_rewards>  (102) 
-1.0949

>  <r_i_glide_evdw>  (102) 
-25.2868

>  <r_i_glide_ecoul>  (102) 
-9.46225

>  <r_i_glide_erotb>  (102) 
0.821357

>  <r_i_glide_esite>  (102) 
-0.114917

>  <r_i_glide_emodel>  (102) 
-39.299

>  <r_i_glide_energy>  (102) 
-34.749

>  <r_i_glide_einternal>  (102) 
4.92851

>  <r_i_glide_intrahb_reward>  (102) 
-0

>  <i_i_glide_confnum>  (102) 
3

>  <i_i_glide_posenum>  (102) 
17

>  <r_i_glide_eff_state_penalty>  (102) 
0

>  <ligand_id>  (102) 
34

>  <original_smiles>  (102) 
CCCCSCC1OC(n2cnc3c(=N)[nH]cnc32)C(O)C1O

>  <smiles>  (102) 
[H]OC1([H])C([H])(n2c([H])nc3c(N([H])[H])nc([H])nc32)OC([H])(C([H])([H])SC([H])([H])C([H])([H])C([H])([H])C([H])([H])[H])C1([H])O[H]

$$$$
34:0:1
     RDKit          3D

 44 46  0  0  1  0  0  0  0  0999 V2000
   -3.6845    3.4180    9.8635 C   0  0  0  0  0  0  0  0  0  0  0  0
   -2.6271    2.6949    9.0310 C   0  0  0  0  0  0  0  0  0  0  0  0
   -2.3982    3.3592    7.6710 C   0  0  0  0  0  0  0  0  0  0  0  0
   -1.3982    2.6247    6.7741 C   0  0  0  0  0  0  0  0  0  0  0  0
    0.2613    2.4415    7.5017 S   0  0  0  0  0  0  0  0  0  0  0  0
    1.2963    3.2531    6.2457 C   0  0  0  0  0  0  0  0  0  0  0  0
    1.1833    2.6326    4.8334 C   0  0  2  0  0  0  0  0  0  0  0  0
    1.9262    1.4135    4.7589 O   0  0  0  0  0  0  0  0  0  0  0  0
    2.7199    1.4301    3.6179 C   0  0  1  0  0  0  0  0  0  0  0  0
    2.6404    0.0965    2.9589 N   0  0  0  0  0  0  0  0  0  0  0  0
    1.5301   -0.6840    2.7254 C   0  0  0  0  0  0  0  0  0  0  0  0
    1.7640   -1.8089    2.1061 N   0  0  0  0  0  0  0  0  0  0  0  0
    3.1346   -1.7962    1.8887 C   0  0  0  0  0  0  0  0  0  0  0  0
    4.0406   -2.6923    1.2789 C   0  0  0  0  0  0  0  0  0  0  0  0
    3.6513   -3.8554    0.7471 N   0  0  0  0  0  0  0  0  0  0  0  0
    5.3532   -2.3715    1.2566 N   0  0  0  0  0  0  0  0  0  0  0  0
    5.7564   -1.2155    1.7980 C   0  0  0  0  0  0  0  0  0  0  0  0
    5.0180   -0.2713    2.3928 N   0  0  0  0  0  0  0  0  0  0  0  0
    3.6922   -0.6093    2.4221 C   0  0  0  0  0  0  0  0  0  0  0  0
    2.1917    2.5505    2.7106 C   0  0  1  0  0  0  0  0  0  0  0  0
    1.0919    2.1422    1.9008 O   0  0  0  0  0  0  0  0  0  0  0  0
    1.7598    3.5529    3.7534 C   0  0  1  0  0  0  0  0  0  0  0  0
    0.8156    4.5118    3.2838 O   0  0  0  0  0  0  0  0  0  0  0  0
    4.3254   -4.4729    0.3212 H   0  0  0  0  0  0  0  0  0  0  0  0
   -3.8137    2.9361   10.8332 H   0  0  0  0  0  0  0  0  0  0  0  0
   -4.6509    3.4331    9.3564 H   0  0  0  0  0  0  0  0  0  0  0  0
   -3.3843    4.4487   10.0533 H   0  0  0  0  0  0  0  0  0  0  0  0
   -1.6956    2.6593    9.5964 H   0  0  0  0  0  0  0  0  0  0  0  0
   -2.9405    1.6700    8.8697 H   0  0  0  0  0  0  0  0  0  0  0  0
   -3.3454    3.3925    7.1308 H   0  0  0  0  0  0  0  0  0  0  0  0
   -2.0809    4.3947    7.8056 H   0  0  0  0  0  0  0  0  0  0  0  0
   -1.7559    1.6295    6.5069 H   0  0  0  0  0  0  0  0  0  0  0  0
   -1.3467    3.2081    5.8578 H   0  0  0  0  0  0  0  0  0  0  0  0
    1.0115    4.3049    6.2212 H   0  0  0  0  0  0  0  0  0  0  0  0
    2.3368    3.2263    6.5746 H   0  0  0  0  0  0  0  0  0  0  0  0
    0.1578    2.3842    4.5532 H   0  0  0  0  0  0  0  0  0  0  0  0
    3.7551    1.5746    3.9308 H   0  0  0  0  0  0  0  0  0  0  0  0
    0.5340   -0.3646    3.0067 H   0  0  0  0  0  0  0  0  0  0  0  0
    2.6660   -4.0704    0.7564 H   0  0  0  0  0  0  0  0  0  0  0  0
    6.8186   -1.0241    1.7606 H   0  0  0  0  0  0  0  0  0  0  0  0
    2.9915    2.9366    2.0948 H   0  0  0  0  0  0  0  0  0  0  0  0
    0.7371    2.8771    1.3963 H   0  0  0  0  0  0  0  0  0  0  0  0
    2.6337    4.0628    4.1627 H   0  0  0  0  0  0  0  0  0  0  0  0
    0.6101    4.3665    2.3586 H   0  0  0  0  0  0  0  0  0  0  0  0
  1  2  1  0
  1 25  1  0
  1 26  1  0
  1 27  1  0
  2  3  1  0
  2 28  1  0
  2 29  1  0
  3  4  1  0
  3 30  1  0
  3 31  1  0
  4  5  1  0
  4 32  1  0
  4 33  1  0
  5  6  1  0
  6  7  1  0
  6 34  1  0
  6 35  1  0
  7 22  1  0
  7  8  1  0
  7 36  1  6
  8  9  1  0
  9 20  1  0
  9 37  1  1
  9 10  1  0
 10 11  1  0
 10 19  1  0
 11 12  2  0
 11 38  1  0
 12 13  1  0
 13 14  1  0
 13 19  2  0
 14 16  2  0
 14 15  1  0
 15 39  1  0
 15 24  1  0
 16 17  1  0
 17 40  1  0
 17 18  2  0
 18 19  1  0
 20 21  1  0
 20 22  1  0
 20 41  1  6
 21 42  1  0
 22 23  1  0
 22 43  1  1
 23 44  1  0
M  END
>  <i_m_ct_stereo_status>  (103) 
1

>  <s_m_source_file>  (103) 
/var/tmp/pbs.5076255.sched01/tmpa1vw3d_c/4207j0axjo.sdf

>  <i_m_source_file_index>  (103) 
10

>  <i_lp_mmshare_version>  (103) 
48012

>  <i_f3d_flags>  (103) 
0

>  <s_epik_input>  (103) 
W0NIM11bQ0gyXVtDSDJdW0NIMl1TW0NIMl1bQ0BASF0xT1tDQEhdKFtDQEBIXShbT0hdKVtDQEhdMVtPSF0pbihbY0hdbjIpYyhjMjMpbltjSF1bbkhdY1wzPU5cW0hd

>  <s_epik_cmdline>  (103) 
J2VwaWtfcHl0aG9uJywgJy1waHQnLCAnMi4wJywgJy1waCcsICc3LjAnLCAnLXRuJywgJzgnLCAnLW1hJywgJzIwMCcsICctaW1hZScsICc8aW5maWxlLm1hZT4nLCAnLW9tYWUnLCAnPG91dGZpbGUubWFlPic=

>  <r_lp_tautomer_probability>  (103) 
1

>  <r_epik_Ionization_Penalty>  (103) 
0.000420615

>  <r_epik_Ionization_Penalty_Charging>  (103) 
0

>  <r_epik_Ionization_Penalty_Neutral>  (103) 
0.000420615

>  <r_epik_State_Penalty>  (103) 
-0

>  <r_epik_Charging_Adjusted_Penalty>  (103) 
0

>  <i_epik_Tot_Q>  (103) 
0

>  <i_epik_Tot_abs_Q>  (103) 
0

>  <s_epik_Chemistry_Notes>  (103) 
This compound contains an acetal/aminal-like group ( X-CH(R)-Y where X, Y are N, S, or O) that may be acid/base labile, releasing an aldehyde.

>  <s_lp_Force_Field>  (103) 
OPLS3e

>  <r_lp_Energy>  (103) 
14.6178

>  <b_lp_Chiralities_Consistent>  (103) 
1

>  <s_lp_Variant>  (103) 
34:0-1

>  <s_i_glide_gridfile>  (103) 
pfpi4k_grid

>  <i_i_glide_lignum>  (103) 
10

>  <i_i_glide_rotatable_bonds>  (103) 
8

>  <r_i_docking_score>  (103) 
-3.02216

>  <r_i_glide_ligand_efficiency>  (103) 
-0.131398

>  <r_i_glide_ligand_efficiency_sa>  (103) 
-0.373679

>  <r_i_glide_ligand_efficiency_ln>  (103) 
-0.730786

>  <r_i_glide_gscore>  (103) 
-3.02216

>  <r_i_glide_lipo>  (103) 
-0.115501

>  <r_i_glide_hbond>  (103) 
-0.0594771

>  <r_i_glide_metal>  (103) 
-0

>  <r_i_glide_rewards>  (103) 
-1.31027

>  <r_i_glide_evdw>  (103) 
-19.7287

>  <r_i_glide_ecoul>  (103) 
-8.88662

>  <r_i_glide_erotb>  (103) 
0.821357

>  <r_i_glide_esite>  (103) 
-0.0388421

>  <r_i_glide_emodel>  (103) 
-32.6663

>  <r_i_glide_energy>  (103) 
-28.6153

>  <r_i_glide_einternal>  (103) 
5.03696

>  <r_i_glide_intrahb_reward>  (103) 
-0

>  <i_i_glide_confnum>  (103) 
2

>  <i_i_glide_posenum>  (103) 
2

>  <r_i_glide_eff_state_penalty>  (103) 
0

>  <ligand_id>  (103) 
34

>  <original_smiles>  (103) 
CCCCSCC1OC(n2cnc3c(=N)[nH]cnc32)C(O)C1O

>  <smiles>  (103) 
[H]OC1([H])C([H])(n2c([H])nc3c(N([H])[H])nc([H])nc32)OC([H])(C([H])([H])SC([H])([H])C([H])([H])C([H])([H])C([H])([H])[H])C1([H])O[H]

$$$$
34:0:2
     RDKit          3D

 44 46  0  0  1  0  0  0  0  0999 V2000
    2.2254    3.0835    2.6974 C   0  0  0  0  0  0  0  0  0  0  0  0
    0.8842    2.3933    3.0008 C   0  0  0  0  0  0  0  0  0  0  0  0
    0.4900    1.3074    1.9870 C   0  0  0  0  0  0  0  0  0  0  0  0
    1.2705   -0.0088    2.1040 C   0  0  0  0  0  0  0  0  0  0  0  0
    2.9492    0.0667    1.3908 S   0  0  0  0  0  0  0  0  0  0  0  0
    3.6515   -1.5014    1.9722 C   0  0  0  0  0  0  0  0  0  0  0  0
    2.8968   -2.7052    1.3652 C   0  0  2  0  0  0  0  0  0  0  0  0
    2.8787   -3.7738    2.3162 O   0  0  0  0  0  0  0  0  0  0  0  0
    3.2210   -4.9582    1.6890 C   0  0  1  0  0  0  0  0  0  0  0  0
    2.3072   -6.0310    2.1441 N   0  0  0  0  0  0  0  0  0  0  0  0
    1.0614   -5.9202    2.7225 C   0  0  0  0  0  0  0  0  0  0  0  0
    0.4656   -7.0550    2.9601 N   0  0  0  0  0  0  0  0  0  0  0  0
    1.4117   -8.0148    2.5773 C   0  0  0  0  0  0  0  0  0  0  0  0
    1.4497   -9.4254    2.6163 C   0  0  0  0  0  0  0  0  0  0  0  0
    0.4586  -10.1804    3.0834 N   0  0  0  0  0  0  0  0  0  0  0  0
    2.5648  -10.0468    2.1662 N   0  0  0  0  0  0  0  0  0  0  0  0
    3.5671   -9.3228    1.6723 C   0  0  0  0  0  0  0  0  0  0  0  0
    3.6657   -7.9934    1.5710 N   0  0  0  0  0  0  0  0  0  0  0  0
    2.5530   -7.3727    2.0575 C   0  0  0  0  0  0  0  0  0  0  0  0
    3.1208   -4.7326    0.1693 C   0  0  1  0  0  0  0  0  0  0  0  0
    1.8360   -4.9777   -0.3707 O   0  0  0  0  0  0  0  0  0  0  0  0
    3.5346   -3.2660    0.0916 C   0  0  1  0  0  0  0  0  0  0  0  0
    3.0943   -2.5992   -1.0882 O   0  0  0  0  0  0  0  0  0  0  0  0
    0.5500  -11.1901    3.0993 H   0  0  0  0  0  0  0  0  0  0  0  0
    2.4291    3.8796    3.4171 H   0  0  0  0  0  0  0  0  0  0  0  0
    2.2106    3.5208    1.6952 H   0  0  0  0  0  0  0  0  0  0  0  0
    3.0592    2.3851    2.7550 H   0  0  0  0  0  0  0  0  0  0  0  0
    0.8945    1.9627    4.0029 H   0  0  0  0  0  0  0  0  0  0  0  0
    0.0964    3.1489    2.9979 H   0  0  0  0  0  0  0  0  0  0  0  0
   -0.5556    1.0561    2.1657 H   0  0  0  0  0  0  0  0  0  0  0  0
    0.5103    1.6791    0.9630 H   0  0  0  0  0  0  0  0  0  0  0  0
    1.3120   -0.3489    3.1421 H   0  0  0  0  0  0  0  0  0  0  0  0
    0.6875   -0.7421    1.5548 H   0  0  0  0  0  0  0  0  0  0  0  0
    4.7159   -1.5131    1.7104 H   0  0  0  0  0  0  0  0  0  0  0  0
    3.6423   -1.5204    3.0675 H   0  0  0  0  0  0  0  0  0  0  0  0
    1.8536   -2.4953    1.1568 H   0  0  0  0  0  0  0  0  0  0  0  0
    4.2272   -5.2240    2.0284 H   0  0  0  0  0  0  0  0  0  0  0  0
    0.6152   -4.9578    2.9244 H   0  0  0  0  0  0  0  0  0  0  0  0
   -0.3700   -9.7292    3.4666 H   0  0  0  0  0  0  0  0  0  0  0  0
    4.4107   -9.9021    1.2949 H   0  0  0  0  0  0  0  0  0  0  0  0
    3.8486   -5.3667   -0.3376 H   0  0  0  0  0  0  0  0  0  0  0  0
    1.9280   -4.8787   -1.3138 H   0  0  0  0  0  0  0  0  0  0  0  0
    4.6273   -3.2145    0.1615 H   0  0  0  0  0  0  0  0  0  0  0  0
    2.3040   -2.0884   -0.9140 H   0  0  0  0  0  0  0  0  0  0  0  0
  1  2  1  0
  1 25  1  0
  1 26  1  0
  1 27  1  0
  2  3  1  0
  2 28  1  0
  2 29  1  0
  3  4  1  0
  3 30  1  0
  3 31  1  0
  4  5  1  0
  4 32  1  0
  4 33  1  0
  5  6  1  0
  6  7  1  0
  6 34  1  0
  6 35  1  0
  7 22  1  0
  7  8  1  0
  7 36  1  6
  8  9  1  0
  9 20  1  0
  9 37  1  6
  9 10  1  0
 10 11  1  0
 10 19  1  0
 11 12  2  0
 11 38  1  0
 12 13  1  0
 13 14  1  0
 13 19  2  0
 14 16  2  0
 14 15  1  0
 15 39  1  0
 15 24  1  0
 16 17  1  0
 17 40  1  0
 17 18  2  0
 18 19  1  0
 20 21  1  0
 20 22  1  0
 20 41  1  6
 21 42  1  0
 22 23  1  0
 22 43  1  1
 23 44  1  0
M  END
>  <i_m_ct_stereo_status>  (104) 
1

>  <s_m_source_file>  (104) 
/var/tmp/pbs.5076255.sched01/tmpa1vw3d_c/4207j0axjo.sdf

>  <i_m_source_file_index>  (104) 
10

>  <i_lp_mmshare_version>  (104) 
48012

>  <i_f3d_flags>  (104) 
0

>  <s_epik_input>  (104) 
W0NIM11bQ0gyXVtDSDJdW0NIMl1TW0NIMl1bQ0BASF0xT1tDQEhdKFtDQEBIXShbT0hdKVtDQEhdMVtPSF0pbihbY0hdbjIpYyhjMjMpbltjSF1bbkhdY1wzPU5cW0hd

>  <s_epik_cmdline>  (104) 
J2VwaWtfcHl0aG9uJywgJy1waHQnLCAnMi4wJywgJy1waCcsICc3LjAnLCAnLXRuJywgJzgnLCAnLW1hJywgJzIwMCcsICctaW1hZScsICc8aW5maWxlLm1hZT4nLCAnLW9tYWUnLCAnPG91dGZpbGUubWFlPic=

>  <r_lp_tautomer_probability>  (104) 
1

>  <r_epik_Ionization_Penalty>  (104) 
0.000420615

>  <r_epik_Ionization_Penalty_Charging>  (104) 
0

>  <r_epik_Ionization_Penalty_Neutral>  (104) 
0.000420615

>  <r_epik_State_Penalty>  (104) 
-0

>  <r_epik_Charging_Adjusted_Penalty>  (104) 
0

>  <i_epik_Tot_Q>  (104) 
0

>  <i_epik_Tot_abs_Q>  (104) 
0

>  <s_epik_Chemistry_Notes>  (104) 
This compound contains an acetal/aminal-like group ( X-CH(R)-Y where X, Y are N, S, or O) that may be acid/base labile, releasing an aldehyde.

>  <s_lp_Force_Field>  (104) 
OPLS3e

>  <r_lp_Energy>  (104) 
14.6178

>  <b_lp_Chiralities_Consistent>  (104) 
1

>  <s_lp_Variant>  (104) 
34:0-1

>  <s_i_glide_gridfile>  (104) 
pfpi4k_grid

>  <i_i_glide_lignum>  (104) 
10

>  <i_i_glide_rotatable_bonds>  (104) 
8

>  <r_i_docking_score>  (104) 
-2.98589

>  <r_i_glide_ligand_efficiency>  (104) 
-0.129821

>  <r_i_glide_ligand_efficiency_sa>  (104) 
-0.369194

>  <r_i_glide_ligand_efficiency_ln>  (104) 
-0.722015

>  <r_i_glide_gscore>  (104) 
-2.98589

>  <r_i_glide_lipo>  (104) 
-0.0605142

>  <r_i_glide_hbond>  (104) 
0

>  <r_i_glide_metal>  (104) 
-0

>  <r_i_glide_rewards>  (104) 
-1.09878

>  <r_i_glide_evdw>  (104) 
-25.0049

>  <r_i_glide_ecoul>  (104) 
-8.5206

>  <r_i_glide_erotb>  (104) 
0.821357

>  <r_i_glide_esite>  (104) 
-0.119613

>  <r_i_glide_emodel>  (104) 
-36.5662

>  <r_i_glide_energy>  (104) 
-33.5255

>  <r_i_glide_einternal>  (104) 
6.19182

>  <r_i_glide_intrahb_reward>  (104) 
-0

>  <i_i_glide_confnum>  (104) 
3

>  <i_i_glide_posenum>  (104) 
1

>  <r_i_glide_eff_state_penalty>  (104) 
0

>  <ligand_id>  (104) 
34

>  <original_smiles>  (104) 
CCCCSCC1OC(n2cnc3c(=N)[nH]cnc32)C(O)C1O

>  <smiles>  (104) 
[H]OC1([H])C([H])(n2c([H])nc3c(N([H])[H])nc([H])nc32)OC([H])(C([H])([H])SC([H])([H])C([H])([H])C([H])([H])C([H])([H])[H])C1([H])O[H]

$$$$
35:0:0
     RDKit          3D

 72 82  0  0  1  0  0  0  0  0999 V2000
    4.8149   -2.3592    6.0008 C   0  0  0  0  0  0  0  0  0  0  0  0
    4.5830   -2.7260    4.8582 C   0  0  0  0  0  0  0  0  0  0  0  0
    4.3335   -3.1752    3.4704 C   0  0  2  0  0  0  0  0  0  0  0  0
    3.8936   -1.9684    2.5998 C   0  0  0  0  0  0  0  0  0  0  0  0
    3.8454   -2.1399    1.0768 C   0  0  1  0  0  0  0  0  0  0  0  0
    5.1182   -2.1738    0.2481 C   0  0  1  0  0  0  0  0  0  0  0  0
    6.2978   -2.1931    1.0302 O   0  0  0  0  0  0  0  0  0  0  0  0
    7.3510   -2.9737    0.4795 C   0  0  0  0  0  0  0  0  0  0  0  0
    6.9599   -4.4485    0.3195 C   0  0  0  0  0  0  0  0  0  0  0  0
    6.0281   -4.8151    1.3246 O   0  0  0  0  0  0  0  0  0  0  0  0
    4.6584   -4.7471    0.9207 C   0  0  2  0  0  0  0  0  0  0  0  0
    4.2356   -3.4019    0.3028 C   0  0  1  0  0  0  0  0  0  0  0  0
    3.7860   -5.3029    2.0689 C   0  0  2  0  0  0  0  0  0  0  0  0
    2.2911   -5.7267    1.8671 C   0  0  1  0  0  0  0  0  0  0  0  0
    1.7961   -5.4905    0.4127 C   0  0  0  0  0  0  0  0  0  0  0  0
    2.2495   -7.3498    2.1489 C   0  0  2  0  0  0  0  0  0  0  0  0
    1.2467   -8.0528    1.7465 C   0  0  2  0  0  0  0  0  0  0  0  0
    0.2066   -6.9374    2.2859 O   0  0  0  0  0  0  0  0  0  0  0  0
    0.0147   -6.7364    3.7065 C   0  0  0  0  0  0  0  0  0  0  0  0
   -1.1664   -7.3571    3.9804 C   0  0  0  0  0  0  0  0  0  0  0  0
   -1.6070   -8.4740    3.0770 C   0  0  0  0  0  0  0  0  0  0  0  0
   -0.7571   -9.3896    2.4575 C   0  0  0  0  0  0  0  0  0  0  0  0
    0.8356   -9.7537    2.5943 C   0  0  1  0  0  0  0  0  0  0  0  0
    1.5041   -8.5092    3.0831 N   0  0  0  0  0  0  0  0  0  0  0  0
    1.2189   -8.6102    4.5709 C   0  0  1  0  0  0  0  0  0  0  0  0
    2.0615   -9.8846    4.9944 C   0  0  0  0  0  0  0  0  0  0  0  0
    2.3957  -10.6322    3.6178 C   0  0  0  0  0  0  0  0  0  0  0  0
    2.3433   -9.3572    2.4488 C   0  0  1  0  0  0  0  0  0  0  0  0
    3.8490   -8.7788    3.3498 C   0  0  1  0  0  0  0  0  0  0  0  0
    4.9006   -8.5638    2.4066 O   0  0  0  0  0  0  0  0  0  0  0  0
    3.7864   -7.5563    4.5064 C   0  0  0  0  0  0  0  0  0  0  0  0
    2.4990   -6.6182    4.7095 C   0  0  0  0  0  0  0  0  0  0  0  0
    1.2194   -7.1491    4.6351 C   0  0  0  0  0  0  0  0  0  0  0  0
    2.7884   -5.1132    4.6059 C   0  0  2  0  0  0  0  0  0  0  0  0
    1.5802   -4.2502    4.2547 C   0  0  0  0  0  0  0  0  0  0  0  0
    1.9950   -4.4400    2.7785 C   0  0  1  0  0  0  0  0  0  0  0  0
    3.4484   -4.4645    3.3096 C   0  0  1  0  0  0  0  0  0  0  0  0
    5.0110   -2.0502    7.0025 H   0  0  0  0  0  0  0  0  0  0  0  0
    5.3498   -3.4217    3.1722 H   0  0  0  0  0  0  0  0  0  0  0  0
    2.9095   -1.6353    2.9346 H   0  0  0  0  0  0  0  0  0  0  0  0
    4.5520   -1.1182    2.7881 H   0  0  0  0  0  0  0  0  0  0  0  0
    3.0522   -1.5292    0.6414 H   0  0  0  0  0  0  0  0  0  0  0  0
    5.1918   -1.5888   -0.6670 H   0  0  0  0  0  0  0  0  0  0  0  0
    7.7045   -2.5653   -0.4679 H   0  0  0  0  0  0  0  0  0  0  0  0
    8.1906   -2.9124    1.1672 H   0  0  0  0  0  0  0  0  0  0  0  0
    6.5735   -4.6464   -0.6798 H   0  0  0  0  0  0  0  0  0  0  0  0
    7.8471   -5.0702    0.4367 H   0  0  0  0  0  0  0  0  0  0  0  0
    4.5787   -5.4826    0.1191 H   0  0  0  0  0  0  0  0  0  0  0  0
    3.7580   -3.5684   -0.6606 H   0  0  0  0  0  0  0  0  0  0  0  0
    4.3568   -6.1527    2.4174 H   0  0  0  0  0  0  0  0  0  0  0  0
    0.7531   -5.7573    0.2703 H   0  0  0  0  0  0  0  0  0  0  0  0
    2.3690   -6.0620   -0.3130 H   0  0  0  0  0  0  0  0  0  0  0  0
    1.8628   -4.4452    0.1063 H   0  0  0  0  0  0  0  0  0  0  0  0
    3.0124   -7.6361    1.4178 H   0  0  0  0  0  0  0  0  0  0  0  0
    1.1682   -8.0816    0.6566 H   0  0  0  0  0  0  0  0  0  0  0  0
   -1.4531   -7.3830    5.0214 H   0  0  0  0  0  0  0  0  0  0  0  0
   -2.6765   -8.5328    2.9217 H   0  0  0  0  0  0  0  0  0  0  0  0
   -0.3048   -9.4754    3.3725 H   0  0  0  0  0  0  0  0  0  0  0  0
    0.9080  -10.3021    1.6683 H   0  0  0  0  0  0  0  0  0  0  0  0
    0.2289   -8.9399    4.9148 H   0  0  0  0  0  0  0  0  0  0  0  0
    2.9100   -9.6977    5.6402 H   0  0  0  0  0  0  0  0  0  0  0  0
    1.4499  -10.5519    5.6109 H   0  0  0  0  0  0  0  0  0  0  0  0
    3.3440  -11.1670    3.6704 H   0  0  0  0  0  0  0  0  0  0  0  0
    1.7784  -11.5281    3.4828 H   0  0  0  0  0  0  0  0  0  0  0  0
    4.4149   -9.5478    3.8826 H   0  0  0  0  0  0  0  0  0  0  0  0
    5.0226   -9.3619    1.9087 H   0  0  0  0  0  0  0  0  0  0  0  0
    4.0202   -7.9651    5.4870 H   0  0  0  0  0  0  0  0  0  0  0  0
    4.6423   -6.9051    4.3601 H   0  0  0  0  0  0  0  0  0  0  0  0
    3.2449   -4.8383    5.5516 H   0  0  0  0  0  0  0  0  0  0  0  0
    0.5832   -4.5489    4.5654 H   0  0  0  0  0  0  0  0  0  0  0  0
    1.7164   -3.2170    4.5849 H   0  0  0  0  0  0  0  0  0  0  0  0
    1.6892   -3.5785    2.1796 H   0  0  0  0  0  0  0  0  0  0  0  0
  1  2  3  0
  1 38  1  0
  2  3  1  0
 37  3  1  1
  3  4  1  0
  3 39  1  6
  4  5  1  0
  4 40  1  0
  4 41  1  0
  5 12  1  0
  5  6  1  0
  5 42  1  6
  6 12  1  0
  6  7  1  0
  6 43  1  6
  7  8  1  0
  8  9  1  0
  8 44  1  0
  8 45  1  0
  9 10  1  0
  9 46  1  0
  9 47  1  0
 10 11  1  0
 11 12  1  0
 11 13  1  0
 11 48  1  6
 12 49  1  6
 13 37  1  0
 13 14  1  0
 13 50  1  1
 14 36  1  0
 14 15  1  6
 14 16  1  0
 15 51  1  0
 15 52  1  0
 15 53  1  0
 16 24  1  0
 16 17  1  0
 16 54  1  6
 17 28  1  0
 17 18  1  0
 17 55  1  6
 18 19  1  0
 19 33  1  0
 19 20  2  3
 20 21  1  0
 20 56  1  0
 21 22  2  3
 21 57  1  0
 22 23  1  0
 22 58  1  0
 23 28  1  0
 23 24  1  0
 23 59  1  1
 24 25  1  0
 25 33  1  0
 25 26  1  0
 25 60  1  6
 26 27  1  0
 26 61  1  0
 26 62  1  0
 28 27  1  1
 27 63  1  0
 27 64  1  0
 28 29  1  0
 29 30  1  0
 29 31  1  0
 29 65  1  1
 30 66  1  0
 31 32  1  0
 31 67  1  0
 31 68  1  0
 32 33  2  3
 32 34  1  0
 34 37  1  0
 34 35  1  0
 34 69  1  1
 35 36  1  0
 35 70  1  0
 35 71  1  0
 36 37  1  0
 36 72  1  6
M  END
>  <i_m_ct_stereo_status>  (105) 
1

>  <s_m_source_file>  (105) 
/var/tmp/pbs.5076255.sched01/tmpa1vw3d_c/4207j0axjo.sdf

>  <i_m_source_file_index>  (105) 
11

>  <i_lp_mmshare_version>  (105) 
48012

>  <i_f3d_flags>  (105) 
3

>  <s_epik_input>  (105) 
TzFbQ0gyXVtDSDJdT1tDQEhdMltDQEhdM1tDQEBIXTFbQ0BIXTNbQ0gyXVtDQEBIXShDI1tDSF0pW0NAQF00KFtDQEBIXTJbQ0BAXTUoW0NIM10pW0NIXTZbQ0BIXTdbQ0BAXTE4OSlbQ0BASF0oW0NIMl1bQ0BASF00NSlDKFxbQ0gyXVtDQEBIXTFbT0hdKT1DXDFDKFxPNyk9W0NIXS9bQ0hdPVtDSF1cW0NASF04TjZbQ0BASF0xW0NIMl1bQ0gyXTk=

>  <s_epik_cmdline>  (105) 
J2VwaWtfcHl0aG9uJywgJy1waHQnLCAnMi4wJywgJy1waCcsICc3LjAnLCAnLXRuJywgJzgnLCAnLW1hJywgJzIwMCcsICctaW1hZScsICc8aW5maWxlLm1hZT4nLCAnLW9tYWUnLCAnPG91dGZpbGUubWFlPic=

>  <r_epik_Ionization_Penalty>  (105) 
0.00154575

>  <r_epik_Ionization_Penalty_Charging>  (105) 
0

>  <r_epik_Ionization_Penalty_Neutral>  (105) 
0.00154575

>  <r_epik_State_Penalty>  (105) 
0.00103763

>  <r_epik_Charging_Adjusted_Penalty>  (105) 
0.00103763

>  <i_epik_Tot_Q>  (105) 
0

>  <i_epik_Tot_abs_Q>  (105) 
0

>  <s_lp_Force_Field>  (105) 
OPLS3e

>  <r_lp_Energy>  (105) 
885.697

>  <b_lp_Chiralities_Consistent>  (105) 
0

>  <s_lp_Variant>  (105) 
35:0-1

>  <s_i_glide_gridfile>  (105) 
pfpi4k_grid

>  <i_i_glide_lignum>  (105) 
11

>  <i_i_glide_rotatable_bonds>  (105) 
2

>  <r_i_docking_score>  (105) 
1.31597

>  <r_i_glide_ligand_efficiency>  (105) 
0.0355669

>  <r_i_glide_ligand_efficiency_sa>  (105) 
0.118517

>  <r_i_glide_ligand_efficiency_ln>  (105) 
0.285404

>  <r_i_glide_gscore>  (105) 
1.31597

>  <r_i_glide_lipo>  (105) 
-0.694272

>  <r_i_glide_hbond>  (105) 
-0.00389646

>  <r_i_glide_metal>  (105) 
-0

>  <r_i_glide_rewards>  (105) 
-0.0161959

>  <r_i_glide_evdw>  (105) 
-25.8522

>  <r_i_glide_ecoul>  (105) 
-1.83231

>  <r_i_glide_erotb>  (105) 
0.0823827

>  <r_i_glide_esite>  (105) 
0

>  <r_i_glide_emodel>  (105) 
-13.2408

>  <r_i_glide_energy>  (105) 
-27.6845

>  <r_i_glide_einternal>  (105) 
1.31554

>  <r_i_glide_intrahb_reward>  (105) 
-0

>  <i_i_glide_confnum>  (105) 
1

>  <i_i_glide_posenum>  (105) 
30

>  <r_i_glide_eff_state_penalty>  (105) 
0

>  <ligand_id>  (105) 
35

>  <original_smiles>  (105) 
C#CC1CC2C3OCCOC(C23)C2C3(C)C4C5OC6=CC=CC7N4C4CCC57C(O)CC(=C64)C4CC3C142

>  <smiles>  (105) 
[H]C#CC1([H])C([H])([H])C2([H])C3([H])OC([H])([H])C([H])([H])OC([H])(C32[H])C2([H])C13C1([H])C4=C5C6=C([H])C([H])=C([H])C7([H])N8C5([H])C([H])([H])C([H])([H])C7(C([H])(O[H])C4([H])[H])C([H])(O6)C8([H])C2(C([H])([H])[H])C3([H])C1([H])[H]

$$$$
35:0:1
     RDKit          3D

 72 82  0  0  1  0  0  0  0  0999 V2000
    7.0087   -8.5142    4.7786 C   0  0  0  0  0  0  0  0  0  0  0  0
    5.9189   -8.2802    4.2827 C   0  0  0  0  0  0  0  0  0  0  0  0
    4.5839   -8.0139    3.6970 C   0  0  2  0  0  0  0  0  0  0  0  0
    4.0632   -9.2916    2.9854 C   0  0  0  0  0  0  0  0  0  0  0  0
    2.5969   -9.3402    2.5390 C   0  0  1  0  0  0  0  0  0  0  0  0
    1.4748   -9.5366    3.5462 C   0  0  1  0  0  0  0  0  0  0  0  0
    1.9178   -9.4993    4.8900 O   0  0  0  0  0  0  0  0  0  0  0  0
    0.9948   -8.9095    5.7967 C   0  0  0  0  0  0  0  0  0  0  0  0
    0.6981   -7.4434    5.4424 C   0  0  0  0  0  0  0  0  0  0  0  0
    1.8333   -6.8502    4.8290 O   0  0  0  0  0  0  0  0  0  0  0  0
    1.8178   -6.8639    3.4009 C   0  0  2  0  0  0  0  0  0  0  0  0
    1.5537   -8.2418    2.7657 C   0  0  1  0  0  0  0  0  0  0  0  0
    3.0430   -6.0714    2.8948 C   0  0  2  0  0  0  0  0  0  0  0  0
    3.1657   -5.5580    1.4192 C   0  0  1  0  0  0  0  0  0  0  0  0
    1.9479   -5.9582    0.5413 C   0  0  0  0  0  0  0  0  0  0  0  0
    3.1845   -3.9120    1.5258 C   0  0  2  0  0  0  0  0  0  0  0  0
    2.9381   -3.1863    0.4869 C   0  0  2  0  0  0  0  0  0  0  0  0
    3.9020   -4.1118   -0.4194 O   0  0  0  0  0  0  0  0  0  0  0  0
    5.3368   -4.0952   -0.2351 C   0  0  0  0  0  0  0  0  0  0  0  0
    5.8046   -3.3445   -1.2747 C   0  0  0  0  0  0  0  0  0  0  0  0
    4.8829   -2.3210   -1.8882 C   0  0  0  0  0  0  0  0  0  0  0  0
    3.9270   -1.5768   -1.1999 C   0  0  0  0  0  0  0  0  0  0  0  0
    3.5886   -1.3470    0.3897 C   0  0  1  0  0  0  0  0  0  0  0  0
    4.0790   -2.5682    1.1243 N   0  0  0  0  0  0  0  0  0  0  0  0
    5.5529   -2.2295    1.2367 C   0  0  1  0  0  0  0  0  0  0  0  0
    5.5307   -0.9856    2.2196 C   0  0  0  0  0  0  0  0  0  0  0  0
    4.0091   -0.4745    2.2103 C   0  0  0  0  0  0  0  0  0  0  0  0
    3.1194   -1.8962    1.7885 C   0  0  1  0  0  0  0  0  0  0  0  0
    3.6833   -2.4675    3.4538 C   0  0  1  0  0  0  0  0  0  0  0  0
    2.5479   -2.9077    4.2021 O   0  0  0  0  0  0  0  0  0  0  0  0
    5.0002   -3.4983    3.6433 C   0  0  0  0  0  0  0  0  0  0  0  0
    5.6749   -4.2842    2.4151 C   0  0  0  0  0  0  0  0  0  0  0  0
    5.8499   -3.6610    1.1890 C   0  0  0  0  0  0  0  0  0  0  0  0
    5.7468   -5.8066    2.5983 C   0  0  2  0  0  0  0  0  0  0  0  0
    5.8620   -6.6042    1.3044 C   0  0  0  0  0  0  0  0  0  0  0  0
    4.3183   -6.6678    1.3157 C   0  0  1  0  0  0  0  0  0  0  0  0
    4.4477   -6.6887    2.8599 C   0  0  1  0  0  0  0  0  0  0  0  0
    7.9676   -8.7170    5.2053 H   0  0  0  0  0  0  0  0  0  0  0  0
    3.9999   -7.9030    4.6078 H   0  0  0  0  0  0  0  0  0  0  0  0
    4.6894   -9.4883    2.1132 H   0  0  0  0  0  0  0  0  0  0  0  0
    4.2115  -10.1605    3.6311 H   0  0  0  0  0  0  0  0  0  0  0  0
    2.4876   -9.9386    1.6327 H   0  0  0  0  0  0  0  0  0  0  0  0
    0.6779  -10.2541    3.3512 H   0  0  0  0  0  0  0  0  0  0  0  0
    0.0669   -9.4804    5.8635 H   0  0  0  0  0  0  0  0  0  0  0  0
    1.4507   -8.9519    6.7861 H   0  0  0  0  0  0  0  0  0  0  0  0
   -0.1956   -7.3527    4.8225 H   0  0  0  0  0  0  0  0  0  0  0  0
    0.4857   -6.8911    6.3569 H   0  0  0  0  0  0  0  0  0  0  0  0
    0.9577   -6.2468    3.1428 H   0  0  0  0  0  0  0  0  0  0  0  0
    0.7294   -8.1761    2.0594 H   0  0  0  0  0  0  0  0  0  0  0  0
    3.0910   -5.2326    3.5760 H   0  0  0  0  0  0  0  0  0  0  0  0
    2.0455   -5.6414   -0.4929 H   0  0  0  0  0  0  0  0  0  0  0  0
    1.0161   -5.5510    0.9257 H   0  0  0  0  0  0  0  0  0  0  0  0
    1.8058   -7.0352    0.4827 H   0  0  0  0  0  0  0  0  0  0  0  0
    2.2464   -3.8001    2.0765 H   0  0  0  0  0  0  0  0  0  0  0  0
    1.9156   -3.3047    0.1157 H   0  0  0  0  0  0  0  0  0  0  0  0
    6.8676   -3.1487   -1.2733 H   0  0  0  0  0  0  0  0  0  0  0  0
    4.9970   -2.2047   -2.9575 H   0  0  0  0  0  0  0  0  0  0  0  0
    4.6155   -1.4418   -0.4898 H   0  0  0  0  0  0  0  0  0  0  0  0
    2.5991   -0.9484    0.2321 H   0  0  0  0  0  0  0  0  0  0  0  0
    6.0708   -1.7658    0.3844 H   0  0  0  0  0  0  0  0  0  0  0  0
    5.9563   -1.1479    3.2017 H   0  0  0  0  0  0  0  0  0  0  0  0
    6.1674   -0.1895    1.8255 H   0  0  0  0  0  0  0  0  0  0  0  0
    3.7324   -0.0209    3.1615 H   0  0  0  0  0  0  0  0  0  0  0  0
    3.8949    0.4473    1.6218 H   0  0  0  0  0  0  0  0  0  0  0  0
    3.9210   -1.6793    4.1769 H   0  0  0  0  0  0  0  0  0  0  0  0
    1.8980   -2.2188    4.1922 H   0  0  0  0  0  0  0  0  0  0  0  0
    5.8078   -2.9742    4.1516 H   0  0  0  0  0  0  0  0  0  0  0  0
    4.7472   -4.2352    4.3988 H   0  0  0  0  0  0  0  0  0  0  0  0
    6.5754   -5.9770    3.2789 H   0  0  0  0  0  0  0  0  0  0  0  0
    6.3660   -6.1791    0.4435 H   0  0  0  0  0  0  0  0  0  0  0  0
    6.3120   -7.5853    1.4766 H   0  0  0  0  0  0  0  0  0  0  0  0
    3.9661   -7.5721    0.8147 H   0  0  0  0  0  0  0  0  0  0  0  0
  1  2  3  0
  1 38  1  0
  2  3  1  0
 37  3  1  1
  3  4  1  0
  3 39  1  1
  4  5  1  0
  4 40  1  0
  4 41  1  0
  5 12  1  0
  5  6  1  0
  5 42  1  6
  6 12  1  0
  6  7  1  0
  6 43  1  6
  7  8  1  0
  8  9  1  0
  8 44  1  0
  8 45  1  0
  9 10  1  0
  9 46  1  0
  9 47  1  0
 10 11  1  0
 11 12  1  0
 11 13  1  0
 11 48  1  6
 12 49  1  6
 13 37  1  0
 13 14  1  0
 13 50  1  1
 14 36  1  0
 14 15  1  6
 14 16  1  0
 15 51  1  0
 15 52  1  0
 15 53  1  0
 16 24  1  0
 16 17  1  0
 16 54  1  1
 17 28  1  0
 17 18  1  0
 17 55  1  6
 18 19  1  0
 19 33  1  0
 19 20  2  3
 20 21  1  0
 20 56  1  0
 21 22  2  3
 21 57  1  0
 22 23  1  0
 22 58  1  0
 23 28  1  0
 23 24  1  0
 23 59  1  1
 24 25  1  0
 25 33  1  0
 25 26  1  0
 25 60  1  6
 26 27  1  0
 26 61  1  0
 26 62  1  0
 28 27  1  6
 27 63  1  0
 27 64  1  0
 28 29  1  0
 29 30  1  0
 29 31  1  0
 29 65  1  1
 30 66  1  0
 31 32  1  0
 31 67  1  0
 31 68  1  0
 32 33  2  3
 32 34  1  0
 34 37  1  0
 34 35  1  0
 34 69  1  1
 35 36  1  0
 35 70  1  0
 35 71  1  0
 36 37  1  0
 36 72  1  6
M  END
>  <i_m_ct_stereo_status>  (106) 
1

>  <s_m_source_file>  (106) 
/var/tmp/pbs.5076255.sched01/tmpa1vw3d_c/4207j0axjo.sdf

>  <i_m_source_file_index>  (106) 
11

>  <i_lp_mmshare_version>  (106) 
48012

>  <i_f3d_flags>  (106) 
3

>  <s_epik_input>  (106) 
TzFbQ0gyXVtDSDJdT1tDQEhdMltDQEhdM1tDQEBIXTFbQ0BIXTNbQ0gyXVtDQEBIXShDI1tDSF0pW0NAQF00KFtDQEBIXTJbQ0BAXTUoW0NIM10pW0NIXTZbQ0BIXTdbQ0BAXTE4OSlbQ0BASF0oW0NIMl1bQ0BASF00NSlDKFxbQ0gyXVtDQEBIXTFbT0hdKT1DXDFDKFxPNyk9W0NIXS9bQ0hdPVtDSF1cW0NASF04TjZbQ0BASF0xW0NIMl1bQ0gyXTk=

>  <s_epik_cmdline>  (106) 
J2VwaWtfcHl0aG9uJywgJy1waHQnLCAnMi4wJywgJy1waCcsICc3LjAnLCAnLXRuJywgJzgnLCAnLW1hJywgJzIwMCcsICctaW1hZScsICc8aW5maWxlLm1hZT4nLCAnLW9tYWUnLCAnPG91dGZpbGUubWFlPic=

>  <r_epik_Ionization_Penalty>  (106) 
0.00154575

>  <r_epik_Ionization_Penalty_Charging>  (106) 
0

>  <r_epik_Ionization_Penalty_Neutral>  (106) 
0.00154575

>  <r_epik_State_Penalty>  (106) 
0.00103763

>  <r_epik_Charging_Adjusted_Penalty>  (106) 
0.00103763

>  <i_epik_Tot_Q>  (106) 
0

>  <i_epik_Tot_abs_Q>  (106) 
0

>  <s_lp_Force_Field>  (106) 
OPLS3e

>  <r_lp_Energy>  (106) 
885.697

>  <b_lp_Chiralities_Consistent>  (106) 
0

>  <s_lp_Variant>  (106) 
35:0-1

>  <s_i_glide_gridfile>  (106) 
pfpi4k_grid

>  <i_i_glide_lignum>  (106) 
11

>  <i_i_glide_rotatable_bonds>  (106) 
2

>  <r_i_docking_score>  (106) 
2.45065

>  <r_i_glide_ligand_efficiency>  (106) 
0.0662337

>  <r_i_glide_ligand_efficiency_sa>  (106) 
0.220705

>  <r_i_glide_ligand_efficiency_ln>  (106) 
0.531487

>  <r_i_glide_gscore>  (106) 
2.45065

>  <r_i_glide_lipo>  (106) 
-0.751915

>  <r_i_glide_hbond>  (106) 
0

>  <r_i_glide_metal>  (106) 
-0

>  <r_i_glide_rewards>  (106) 
-0.0161959

>  <r_i_glide_evdw>  (106) 
-25.4296

>  <r_i_glide_ecoul>  (106) 
0.973012

>  <r_i_glide_erotb>  (106) 
0.0823827

>  <r_i_glide_esite>  (106) 
0

>  <r_i_glide_emodel>  (106) 
-6.26938

>  <r_i_glide_energy>  (106) 
-24.4566

>  <r_i_glide_einternal>  (106) 
1.32143

>  <r_i_glide_intrahb_reward>  (106) 
-0

>  <i_i_glide_confnum>  (106) 
1

>  <i_i_glide_posenum>  (106) 
8

>  <r_i_glide_eff_state_penalty>  (106) 
0

>  <ligand_id>  (106) 
35

>  <original_smiles>  (106) 
C#CC1CC2C3OCCOC(C23)C2C3(C)C4C5OC6=CC=CC7N4C4CCC57C(O)CC(=C64)C4CC3C142

>  <smiles>  (106) 
[H]C#CC1([H])C([H])([H])C2([H])C3([H])OC([H])([H])C([H])([H])OC([H])(C32[H])C2([H])C13C1([H])C4=C5C6=C([H])C([H])=C([H])C7([H])N8C5([H])C([H])([H])C([H])([H])C7(C([H])(O[H])C4([H])[H])C([H])(O6)C8([H])C2(C([H])([H])[H])C3([H])C1([H])[H]

$$$$
35:0:2
     RDKit          3D

 72 82  0  0  1  0  0  0  0  0999 V2000
    4.8783   -7.9537    6.2625 C   0  0  0  0  0  0  0  0  0  0  0  0
    4.1469   -7.7419    5.3288 C   0  0  0  0  0  0  0  0  0  0  0  0
    3.2235   -7.4961    4.1830 C   0  0  2  0  0  0  0  0  0  0  0  0
    3.1382   -8.7716    3.3029 C   0  0  0  0  0  0  0  0  0  0  0  0
    2.0498   -8.8481    2.2271 C   0  0  1  0  0  0  0  0  0  0  0  0
    0.5963   -9.0962    2.5991 C   0  0  1  0  0  0  0  0  0  0  0  0
    0.3639   -9.0762    3.9922 O   0  0  0  0  0  0  0  0  0  0  0  0
   -0.8934   -8.5331    4.3705 C   0  0  0  0  0  0  0  0  0  0  0  0
   -1.0445   -7.0697    3.9306 C   0  0  0  0  0  0  0  0  0  0  0  0
    0.2208   -6.4250    3.9144 O   0  0  0  0  0  0  0  0  0  0  0  0
    0.8757   -6.4166    2.6480 C   0  0  2  0  0  0  0  0  0  0  0  0
    0.9829   -7.7831    1.9525 C   0  0  1  0  0  0  0  0  0  0  0  0
    2.1658   -5.5780    2.7741 C   0  0  2  0  0  0  0  0  0  0  0  0
    2.9427   -5.0271    1.5316 C   0  0  1  0  0  0  0  0  0  0  0  0
    2.2919   -5.4336    0.1877 C   0  0  0  0  0  0  0  0  0  0  0  0
    2.8584   -3.3868    1.6439 C   0  0  2  0  0  0  0  0  0  0  0  0
    3.0897   -2.6486    0.6163 C   0  0  2  0  0  0  0  0  0  0  0  0
    4.3967   -3.5229    0.2587 O   0  0  0  0  0  0  0  0  0  0  0  0
    5.5785   -3.4651    1.0868 C   0  0  0  0  0  0  0  0  0  0  0  0
    6.4543   -2.6889    0.3900 C   0  0  0  0  0  0  0  0  0  0  0  0
    5.8799   -1.6854   -0.5709 C   0  0  0  0  0  0  0  0  0  0  0  0
    4.7016   -0.9672   -0.3903 C   0  0  0  0  0  0  0  0  0  0  0  0
    3.6315   -0.7821    0.8475 C   0  0  1  0  0  0  0  0  0  0  0  0
    3.7852   -2.0142    1.7181 N   0  0  0  0  0  0  0  0  0  0  0  0
    5.0249   -1.6303    2.5013 C   0  0  1  0  0  0  0  0  0  0  0  0
    4.5075   -0.4128    3.3754 C   0  0  0  0  0  0  0  0  0  0  0  0
    3.1447    0.0564    2.6618 C   0  0  0  0  0  0  0  0  0  0  0  0
    2.5982   -1.3849    1.8669 C   0  0  1  0  0  0  0  0  0  0  0  0
    2.3485   -1.9710    3.5962 C   0  0  1  0  0  0  0  0  0  0  0  0
    1.0217   -2.4661    3.7299 O   0  0  0  0  0  0  0  0  0  0  0  0
    3.4617   -2.9712    4.3683 C   0  0  0  0  0  0  0  0  0  0  0  0
    4.6605   -3.7083    3.5835 C   0  0  0  0  0  0  0  0  0  0  0  0
    5.3543   -3.0570    2.5897 C   0  0  0  0  0  0  0  0  0  0  0  0
    4.6884   -5.2345    3.7725 C   0  0  2  0  0  0  0  0  0  0  0  0
    5.4173   -5.9959    2.6734 C   0  0  0  0  0  0  0  0  0  0  0  0
    4.0497   -6.0984    1.9640 C   0  0  1  0  0  0  0  0  0  0  0  0
    3.4459   -6.1522    3.3942 C   0  0  1  0  0  0  0  0  0  0  0  0
    5.5380   -8.1445    7.0943 H   0  0  0  0  0  0  0  0  0  0  0  0
    2.2804   -7.4219    4.7219 H   0  0  0  0  0  0  0  0  0  0  0  0
    4.1035   -8.9289    2.8211 H   0  0  0  0  0  0  0  0  0  0  0  0
    2.9997   -9.6492    3.9376 H   0  0  0  0  0  0  0  0  0  0  0  0
    2.3920   -9.4285    1.3673 H   0  0  0  0  0  0  0  0  0  0  0  0
    0.0045   -9.8345    2.0592 H   0  0  0  0  0  0  0  0  0  0  0  0
   -1.7281   -9.1182    3.9872 H   0  0  0  0  0  0  0  0  0  0  0  0
   -0.9502   -8.5917    5.4572 H   0  0  0  0  0  0  0  0  0  0  0  0
   -1.5515   -6.9931    2.9671 H   0  0  0  0  0  0  0  0  0  0  0  0
   -1.6776   -6.5480    4.6468 H   0  0  0  0  0  0  0  0  0  0  0  0
    0.2129   -5.8235    2.0244 H   0  0  0  0  0  0  0  0  0  0  0  0
    0.5800   -7.7248    0.9417 H   0  0  0  0  0  0  0  0  0  0  0  0
    1.8664   -4.7567    3.4098 H   0  0  0  0  0  0  0  0  0  0  0  0
    2.8468   -5.0914   -0.6823 H   0  0  0  0  0  0  0  0  0  0  0  0
    1.2783   -5.0652    0.0735 H   0  0  0  0  0  0  0  0  0  0  0  0
    2.2337   -6.5133    0.0903 H   0  0  0  0  0  0  0  0  0  0  0  0
    1.7725   -3.3057    1.6943 H   0  0  0  0  0  0  0  0  0  0  0  0
    2.3566   -2.7801   -0.1880 H   0  0  0  0  0  0  0  0  0  0  0  0
    7.3841   -2.4513    0.8862 H   0  0  0  0  0  0  0  0  0  0  0  0
    6.4599   -1.5402   -1.4686 H   0  0  0  0  0  0  0  0  0  0  0  0
    4.9785   -0.7981    0.5121 H   0  0  0  0  0  0  0  0  0  0  0  0
    2.8012   -0.4207    0.2354 H   0  0  0  0  0  0  0  0  0  0  0  0
    5.8695   -1.1388    2.0100 H   0  0  0  0  0  0  0  0  0  0  0  0
    4.4328   -0.5871    4.4408 H   0  0  0  0  0  0  0  0  0  0  0  0
    5.2238    0.4149    3.3280 H   0  0  0  0  0  0  0  0  0  0  0  0
    2.4424    0.4812    3.3803 H   0  0  0  0  0  0  0  0  0  0  0  0
    3.2887    0.9890    2.0940 H   0  0  0  0  0  0  0  0  0  0  0  0
    2.1956   -1.1968    4.3519 H   0  0  0  0  0  0  0  0  0  0  0  0
    0.9177   -3.1891    3.1318 H   0  0  0  0  0  0  0  0  0  0  0  0
    3.9238   -2.4372    5.1973 H   0  0  0  0  0  0  0  0  0  0  0  0
    2.9138   -3.7315    4.9149 H   0  0  0  0  0  0  0  0  0  0  0  0
    5.1111   -5.3985    4.7576 H   0  0  0  0  0  0  0  0  0  0  0  0
    6.2486   -5.5398    2.1485 H   0  0  0  0  0  0  0  0  0  0  0  0
    5.7698   -6.9691    3.0260 H   0  0  0  0  0  0  0  0  0  0  0  0
    4.0000   -7.0048    1.3524 H   0  0  0  0  0  0  0  0  0  0  0  0
  1  2  3  0
  1 38  1  0
  2  3  1  0
 37  3  1  1
  3  4  1  0
  3 39  1  1
  4  5  1  0
  4 40  1  0
  4 41  1  0
  5 12  1  0
  5  6  1  0
  5 42  1  6
  6 12  1  0
  6  7  1  0
  6 43  1  6
  7  8  1  0
  8  9  1  0
  8 44  1  0
  8 45  1  0
  9 10  1  0
  9 46  1  0
  9 47  1  0
 10 11  1  0
 11 12  1  0
 11 13  1  0
 11 48  1  6
 12 49  1  6
 13 37  1  0
 13 14  1  0
 13 50  1  1
 14 36  1  0
 14 15  1  6
 14 16  1  0
 15 51  1  0
 15 52  1  0
 15 53  1  0
 16 24  1  0
 16 17  1  0
 16 54  1  1
 17 28  1  0
 17 18  1  0
 17 55  1  6
 18 19  1  0
 19 33  1  0
 19 20  2  3
 20 21  1  0
 20 56  1  0
 21 22  2  3
 21 57  1  0
 22 23  1  0
 22 58  1  0
 23 28  1  0
 23 24  1  0
 23 59  1  1
 24 25  1  0
 25 33  1  0
 25 26  1  0
 25 60  1  6
 26 27  1  0
 26 61  1  0
 26 62  1  0
 28 27  1  1
 27 63  1  0
 27 64  1  0
 28 29  1  0
 29 30  1  0
 29 31  1  0
 29 65  1  1
 30 66  1  0
 31 32  1  0
 31 67  1  0
 31 68  1  0
 32 33  2  3
 32 34  1  0
 34 37  1  0
 34 35  1  0
 34 69  1  1
 35 36  1  0
 35 70  1  0
 35 71  1  0
 36 37  1  0
 36 72  1  6
M  END
>  <i_m_ct_stereo_status>  (107) 
1

>  <s_m_source_file>  (107) 
/var/tmp/pbs.5076255.sched01/tmpa1vw3d_c/4207j0axjo.sdf

>  <i_m_source_file_index>  (107) 
11

>  <i_lp_mmshare_version>  (107) 
48012

>  <i_f3d_flags>  (107) 
3

>  <s_epik_input>  (107) 
TzFbQ0gyXVtDSDJdT1tDQEhdMltDQEhdM1tDQEBIXTFbQ0BIXTNbQ0gyXVtDQEBIXShDI1tDSF0pW0NAQF00KFtDQEBIXTJbQ0BAXTUoW0NIM10pW0NIXTZbQ0BIXTdbQ0BAXTE4OSlbQ0BASF0oW0NIMl1bQ0BASF00NSlDKFxbQ0gyXVtDQEBIXTFbT0hdKT1DXDFDKFxPNyk9W0NIXS9bQ0hdPVtDSF1cW0NASF04TjZbQ0BASF0xW0NIMl1bQ0gyXTk=

>  <s_epik_cmdline>  (107) 
J2VwaWtfcHl0aG9uJywgJy1waHQnLCAnMi4wJywgJy1waCcsICc3LjAnLCAnLXRuJywgJzgnLCAnLW1hJywgJzIwMCcsICctaW1hZScsICc8aW5maWxlLm1hZT4nLCAnLW9tYWUnLCAnPG91dGZpbGUubWFlPic=

>  <r_epik_Ionization_Penalty>  (107) 
0.00154575

>  <r_epik_Ionization_Penalty_Charging>  (107) 
0

>  <r_epik_Ionization_Penalty_Neutral>  (107) 
0.00154575

>  <r_epik_State_Penalty>  (107) 
0.00103763

>  <r_epik_Charging_Adjusted_Penalty>  (107) 
0.00103763

>  <i_epik_Tot_Q>  (107) 
0

>  <i_epik_Tot_abs_Q>  (107) 
0

>  <s_lp_Force_Field>  (107) 
OPLS3e

>  <r_lp_Energy>  (107) 
885.697

>  <b_lp_Chiralities_Consistent>  (107) 
0

>  <s_lp_Variant>  (107) 
35:0-1

>  <s_i_glide_gridfile>  (107) 
pfpi4k_grid

>  <i_i_glide_lignum>  (107) 
11

>  <i_i_glide_rotatable_bonds>  (107) 
2

>  <r_i_docking_score>  (107) 
2.60899

>  <r_i_glide_ligand_efficiency>  (107) 
0.0705132

>  <r_i_glide_ligand_efficiency_sa>  (107) 
0.234965

>  <r_i_glide_ligand_efficiency_ln>  (107) 
0.565828

>  <r_i_glide_gscore>  (107) 
2.60899

>  <r_i_glide_lipo>  (107) 
-0.422917

>  <r_i_glide_hbond>  (107) 
0

>  <r_i_glide_metal>  (107) 
-0

>  <r_i_glide_rewards>  (107) 
-0.0161959

>  <r_i_glide_evdw>  (107) 
-25.9764

>  <r_i_glide_ecoul>  (107) 
0.181448

>  <r_i_glide_erotb>  (107) 
0.0823827

>  <r_i_glide_esite>  (107) 
0

>  <r_i_glide_emodel>  (107) 
-7.50895

>  <r_i_glide_energy>  (107) 
-25.7949

>  <r_i_glide_einternal>  (107) 
1.00444

>  <r_i_glide_intrahb_reward>  (107) 
-0

>  <i_i_glide_confnum>  (107) 
1

>  <i_i_glide_posenum>  (107) 
16

>  <r_i_glide_eff_state_penalty>  (107) 
0

>  <ligand_id>  (107) 
35

>  <original_smiles>  (107) 
C#CC1CC2C3OCCOC(C23)C2C3(C)C4C5OC6=CC=CC7N4C4CCC57C(O)CC(=C64)C4CC3C142

>  <smiles>  (107) 
[H]C#CC1([H])C([H])([H])C2([H])C3([H])OC([H])([H])C([H])([H])OC([H])(C32[H])C2([H])C13C1([H])C4=C5C6=C([H])C([H])=C([H])C7([H])N8C5([H])C([H])([H])C([H])([H])C7(C([H])(O[H])C4([H])[H])C([H])(O6)C8([H])C2(C([H])([H])[H])C3([H])C1([H])[H]

$$$$
36:0:0
     RDKit          3D

 51 55  0  0  1  0  0  0  0  0999 V2000
    4.2839   -6.0276    3.4346 C   0  0  0  0  0  0  0  0  0  0  0  0
    4.4264   -5.0579    2.5090 C   0  0  0  0  0  0  0  0  0  0  0  0
    5.7264   -5.0946    1.6267 C   0  0  2  0  0  0  0  0  0  0  0  0
    6.4137   -3.7461    1.5152 C   0  0  0  0  0  0  0  0  0  0  0  0
    5.9582   -3.1886    0.1470 C   0  0  2  0  0  0  0  0  0  0  0  0
    5.3876   -1.7882    0.3230 C   0  0  0  0  0  0  0  0  0  0  0  0
    4.1252   -1.8744    1.1774 C   0  0  1  0  0  0  0  0  0  0  0  0
    3.3284   -0.5521    1.0827 C   0  0  0  0  0  0  0  0  0  0  0  0
    3.3221   -3.2147    0.9921 C   0  0  1  0  0  0  0  0  0  0  0  0
    2.2165   -2.7224    0.1788 O   0  0  0  0  0  0  0  0  0  0  0  0
    2.6193   -3.5378   -0.9817 C   0  0  1  0  0  0  0  0  0  0  0  0
    1.2829   -4.1443   -1.4823 C   0  0  0  0  0  0  0  0  0  0  0  0
    3.4841   -3.1621   -2.1902 C   0  0  1  0  0  0  0  0  0  0  0  0
    3.5485   -1.7434   -2.2641 O   0  0  0  0  0  0  0  0  0  0  0  0
    3.8027   -1.1462   -3.4492 C   0  0  0  0  0  0  0  0  0  0  0  0
    3.5682    0.3448   -3.4516 C   0  0  0  0  0  0  0  0  0  0  0  0
    4.1641   -1.7096   -4.4770 O   0  0  0  0  0  0  0  0  0  0  0  0
    4.8350   -3.9889   -2.0464 C   0  0  1  0  0  0  0  0  0  0  0  0
    5.9154   -3.4399   -2.7811 O   0  0  0  0  0  0  0  0  0  0  0  0
    5.0258   -4.2529   -0.5268 C   0  0  1  0  0  0  0  0  0  0  0  0
    5.6432   -5.5038    0.1155 C   0  0  0  0  0  0  0  0  0  0  0  0
    3.5681   -4.2612   -0.0873 C   0  0  1  0  0  0  0  0  0  0  0  0
    3.0268   -5.5602    0.0788 O   0  0  0  0  0  0  0  0  0  0  0  0
    3.2974   -3.9560    2.3565 C   0  0  1  0  0  0  0  0  0  0  0  0
    2.0185   -4.5054    2.6159 O   0  0  0  0  0  0  0  0  0  0  0  0
    3.4147   -6.0704    4.0761 H   0  0  0  0  0  0  0  0  0  0  0  0
    5.0352   -6.7970    3.5588 H   0  0  0  0  0  0  0  0  0  0  0  0
    6.4147   -5.7874    2.1075 H   0  0  0  0  0  0  0  0  0  0  0  0
    6.1996   -3.1148    2.3793 H   0  0  0  0  0  0  0  0  0  0  0  0
    7.4944   -3.8831    1.4831 H   0  0  0  0  0  0  0  0  0  0  0  0
    6.8627   -3.0938   -0.4547 H   0  0  0  0  0  0  0  0  0  0  0  0
    6.1172   -1.1655    0.8406 H   0  0  0  0  0  0  0  0  0  0  0  0
    5.2181   -1.2910   -0.6295 H   0  0  0  0  0  0  0  0  0  0  0  0
    4.5075   -1.8168    2.2038 H   0  0  0  0  0  0  0  0  0  0  0  0
    2.9537   -0.3468    0.0780 H   0  0  0  0  0  0  0  0  0  0  0  0
    3.9645    0.2890    1.3414 H   0  0  0  0  0  0  0  0  0  0  0  0
    2.4750   -0.5206    1.7666 H   0  0  0  0  0  0  0  0  0  0  0  0
    1.3702   -4.9196   -2.2175 H   0  0  0  0  0  0  0  0  0  0  0  0
    0.6399   -3.3949   -1.9444 H   0  0  0  0  0  0  0  0  0  0  0  0
    0.7105   -4.6594   -0.7143 H   0  0  0  0  0  0  0  0  0  0  0  0
    2.9868   -3.4916   -3.1065 H   0  0  0  0  0  0  0  0  0  0  0  0
    2.6715    0.4352   -2.8516 H   0  0  0  0  0  0  0  0  0  0  0  0
    3.3262    0.7394   -4.4417 H   0  0  0  0  0  0  0  0  0  0  0  0
    4.3833    0.9246   -3.0076 H   0  0  0  0  0  0  0  0  0  0  0  0
    4.6635   -4.9797   -2.4712 H   0  0  0  0  0  0  0  0  0  0  0  0
    6.1622   -2.5954   -2.4142 H   0  0  0  0  0  0  0  0  0  0  0  0
    6.6456   -5.6173   -0.2798 H   0  0  0  0  0  0  0  0  0  0  0  0
    5.1516   -6.4607   -0.0655 H   0  0  0  0  0  0  0  0  0  0  0  0
    3.0117   -5.9420   -0.8095 H   0  0  0  0  0  0  0  0  0  0  0  0
    3.4429   -3.2642    3.1908 H   0  0  0  0  0  0  0  0  0  0  0  0
    1.4328   -3.7858    2.8147 H   0  0  0  0  0  0  0  0  0  0  0  0
  1  2  2  0
  1 26  1  0
  1 27  1  0
  2 24  1  0
  2  3  1  0
  3 21  1  0
  3  4  1  0
  3 28  1  1
  4  5  1  0
  4 29  1  0
  4 30  1  0
  5 20  1  0
  5  6  1  0
  5 31  1  6
  6  7  1  0
  6 32  1  0
  6 33  1  0
  7  8  1  0
  7  9  1  0
  7 34  1  1
  8 35  1  0
  8 36  1  0
  8 37  1  0
  9 22  1  0
  9 10  1  6
  9 24  1  0
 10 11  1  0
 11 22  1  0
 11 12  1  6
 11 13  1  0
 12 38  1  0
 12 39  1  0
 12 40  1  0
 13 14  1  0
 13 18  1  0
 13 41  1  6
 14 15  1  0
 15 16  1  0
 15 17  2  0
 16 42  1  0
 16 43  1  0
 16 44  1  0
 18 19  1  0
 18 20  1  0
 18 45  1  6
 19 46  1  0
 20 21  1  6
 20 22  1  0
 21 47  1  0
 21 48  1  0
 22 23  1  1
 23 49  1  0
 24 25  1  0
 24 50  1  1
 25 51  1  0
M  END
>  <i_m_ct_stereo_status>  (108) 
1

>  <s_m_source_file>  (108) 
/var/tmp/pbs.5076255.sched01/tmpa1vw3d_c/4207j0axjo.sdf

>  <i_m_source_file_index>  (108) 
12

>  <i_lp_mmshare_version>  (108) 
48012

>  <i_f3d_flags>  (108) 
0

>  <s_epik_input>  (108) 
W09IXVtDQEhdMUMoPVtDSDJdKVtDQEBIXShbQ0gyXTIpW0NIMl1bQ0BIXShbQ0gyXVtDQEhdM1tDSDNdKVtDQEBdMihbQ0BdNChbQ0BAXTEzNSlbT0hdKVtDQEhdKFtPSF0pW0NAQEhdKFtDQEBdNChPNSlbQ0gzXSlPQyg9TylbQ0gzXQ==

>  <s_epik_cmdline>  (108) 
J2VwaWtfcHl0aG9uJywgJy1waHQnLCAnMi4wJywgJy1waCcsICc3LjAnLCAnLXRuJywgJzgnLCAnLW1hJywgJzIwMCcsICctaW1hZScsICc8aW5maWxlLm1hZT4nLCAnLW9tYWUnLCAnPG91dGZpbGUubWFlPic=

>  <r_lp_tautomer_probability>  (108) 
1

>  <r_epik_Ionization_Penalty>  (108) 
7.40438e-07

>  <r_epik_Ionization_Penalty_Charging>  (108) 
0

>  <r_epik_Ionization_Penalty_Neutral>  (108) 
7.40438e-07

>  <r_epik_State_Penalty>  (108) 
-0

>  <r_epik_Charging_Adjusted_Penalty>  (108) 
0

>  <i_epik_Tot_Q>  (108) 
0

>  <i_epik_Tot_abs_Q>  (108) 
0

>  <s_epik_Chemistry_Notes>  (108) 
This compound has an ester and may undergo hydrolysis at high or low pH.

>  <s_lp_Force_Field>  (108) 
OPLS3e

>  <r_lp_Energy>  (108) 
89.1482

>  <b_lp_Chiralities_Consistent>  (108) 
1

>  <s_lp_Variant>  (108) 
36:0-1

>  <s_i_glide_gridfile>  (108) 
pfpi4k_grid

>  <i_i_glide_lignum>  (108) 
12

>  <i_i_glide_rotatable_bonds>  (108) 
5

>  <r_i_docking_score>  (108) 
-3.69748

>  <r_i_glide_ligand_efficiency>  (108) 
-0.147899

>  <r_i_glide_ligand_efficiency_sa>  (108) 
-0.43246

>  <r_i_glide_ligand_efficiency_ln>  (108) 
-0.876414

>  <r_i_glide_gscore>  (108) 
-3.69748

>  <r_i_glide_lipo>  (108) 
-0.370513

>  <r_i_glide_hbond>  (108) 
-0.332177

>  <r_i_glide_metal>  (108) 
-0

>  <r_i_glide_rewards>  (108) 
-1.26712

>  <r_i_glide_evdw>  (108) 
-12.3297

>  <r_i_glide_ecoul>  (108) 
-8.44283

>  <r_i_glide_erotb>  (108) 
0.155235

>  <r_i_glide_esite>  (108) 
0

>  <r_i_glide_emodel>  (108) 
-23.2808

>  <r_i_glide_energy>  (108) 
-20.7725

>  <r_i_glide_einternal>  (108) 
3.94703

>  <r_i_glide_intrahb_reward>  (108) 
-0

>  <i_i_glide_confnum>  (108) 
3

>  <i_i_glide_posenum>  (108) 
22

>  <r_i_glide_eff_state_penalty>  (108) 
0

>  <ligand_id>  (108) 
36

>  <original_smiles>  (108) 
C=C1C2CC3CC(C)C4(OC5(C)C(OC(C)=O)C(O)C3(C2)C54O)C1O

>  <smiles>  (108) 
[H]OC1([H])C(=C([H])[H])C2([H])C([H])([H])C3([H])C([H])([H])C([H])(C([H])([H])[H])C14OC1(C([H])([H])[H])C([H])(OC(=O)C([H])([H])[H])C([H])(O[H])C3(C2([H])[H])C14O[H]

$$$$
36:0:1
     RDKit          3D

 51 55  0  0  1  0  0  0  0  0999 V2000
    3.1477   -1.4650   -2.5352 C   0  0  0  0  0  0  0  0  0  0  0  0
    3.8429   -1.8857   -1.4618 C   0  0  0  0  0  0  0  0  0  0  0  0
    3.4585   -1.2436   -0.0685 C   0  0  2  0  0  0  0  0  0  0  0  0
    4.6532   -0.7599    0.7215 C   0  0  0  0  0  0  0  0  0  0  0  0
    4.9272   -1.9065    1.7226 C   0  0  2  0  0  0  0  0  0  0  0  0
    6.3697   -2.3233    1.6074 C   0  0  0  0  0  0  0  0  0  0  0  0
    6.6313   -2.9594    0.2474 C   0  0  1  0  0  0  0  0  0  0  0  0
    7.9850   -3.7083    0.2348 C   0  0  0  0  0  0  0  0  0  0  0  0
    5.3834   -3.7011   -0.3682 C   0  0  1  0  0  0  0  0  0  0  0  0
    5.7963   -5.0935   -0.1559 O   0  0  0  0  0  0  0  0  0  0  0  0
    4.6941   -5.3395    0.7956 C   0  0  1  0  0  0  0  0  0  0  0  0
    4.0967   -6.6855    0.3749 C   0  0  0  0  0  0  0  0  0  0  0  0
    4.7132   -5.2561    2.3294 C   0  0  1  0  0  0  0  0  0  0  0  0
    6.0511   -5.1369    2.7872 O   0  0  0  0  0  0  0  0  0  0  0  0
    6.7633   -6.2160    3.1574 C   0  0  0  0  0  0  0  0  0  0  0  0
    8.1808   -5.8652    3.5966 C   0  0  0  0  0  0  0  0  0  0  0  0
    6.3539   -7.3803    3.1681 O   0  0  0  0  0  0  0  0  0  0  0  0
    3.7587   -4.0420    2.6738 C   0  0  1  0  0  0  0  0  0  0  0  0
    3.9125   -3.5284    3.9819 O   0  0  0  0  0  0  0  0  0  0  0  0
    3.8548   -3.0317    1.5054 C   0  0  1  0  0  0  0  0  0  0  0  0
    2.7307   -2.0959    1.0261 C   0  0  0  0  0  0  0  0  0  0  0  0
    4.1065   -4.0287    0.3883 C   0  0  1  0  0  0  0  0  0  0  0  0
    2.9053   -4.3329   -0.3157 O   0  0  0  0  0  0  0  0  0  0  0  0
    4.9924   -2.9514   -1.6674 C   0  0  1  0  0  0  0  0  0  0  0  0
    4.6942   -3.8583   -2.7168 O   0  0  0  0  0  0  0  0  0  0  0  0
    3.3345   -1.8427   -3.5308 H   0  0  0  0  0  0  0  0  0  0  0  0
    2.3557   -0.7315   -2.4264 H   0  0  0  0  0  0  0  0  0  0  0  0
    2.8137   -0.3842   -0.2420 H   0  0  0  0  0  0  0  0  0  0  0  0
    5.4845   -0.4764    0.0736 H   0  0  0  0  0  0  0  0  0  0  0  0
    4.3914    0.1419    1.2787 H   0  0  0  0  0  0  0  0  0  0  0  0
    4.7870   -1.4785    2.7166 H   0  0  0  0  0  0  0  0  0  0  0  0
    7.0006   -1.4395    1.7240 H   0  0  0  0  0  0  0  0  0  0  0  0
    6.6142   -2.9618    2.4343 H   0  0  0  0  0  0  0  0  0  0  0  0
    6.8727   -2.0956   -0.3649 H   0  0  0  0  0  0  0  0  0  0  0  0
    7.9836   -4.5781    0.8926 H   0  0  0  0  0  0  0  0  0  0  0  0
    8.7822   -3.0485    0.5825 H   0  0  0  0  0  0  0  0  0  0  0  0
    8.2582   -4.0477   -0.7657 H   0  0  0  0  0  0  0  0  0  0  0  0
    3.1077   -6.8416    0.8161 H   0  0  0  0  0  0  0  0  0  0  0  0
    4.7291   -7.5140    0.6971 H   0  0  0  0  0  0  0  0  0  0  0  0
    4.0141   -6.7496   -0.7056 H   0  0  0  0  0  0  0  0  0  0  0  0
    4.2570   -6.1423    2.7767 H   0  0  0  0  0  0  0  0  0  0  0  0
    8.5903   -5.0671    2.9780 H   0  0  0  0  0  0  0  0  0  0  0  0
    8.8352   -6.7296    3.4992 H   0  0  0  0  0  0  0  0  0  0  0  0
    8.2026   -5.5334    4.6352 H   0  0  0  0  0  0  0  0  0  0  0  0
    2.7433   -4.4442    2.6263 H   0  0  0  0  0  0  0  0  0  0  0  0
    3.7696   -4.2365    4.5909 H   0  0  0  0  0  0  0  0  0  0  0  0
    2.4080   -1.4615    1.8582 H   0  0  0  0  0  0  0  0  0  0  0  0
    1.8150   -2.5554    0.6784 H   0  0  0  0  0  0  0  0  0  0  0  0
    3.1179   -4.9707   -0.9823 H   0  0  0  0  0  0  0  0  0  0  0  0
    5.8330   -2.3944   -2.0809 H   0  0  0  0  0  0  0  0  0  0  0  0
    4.0294   -4.4705   -2.4348 H   0  0  0  0  0  0  0  0  0  0  0  0
  1  2  2  0
  1 26  1  0
  1 27  1  0
  2 24  1  0
  2  3  1  0
  3 21  1  0
  3  4  1  0
  3 28  1  6
  4  5  1  0
  4 29  1  0
  4 30  1  0
  5 20  1  0
  5  6  1  0
  5 31  1  1
  6  7  1  0
  6 32  1  0
  6 33  1  0
  7  8  1  0
  7  9  1  0
  7 34  1  6
  8 35  1  0
  8 36  1  0
  8 37  1  0
  9 22  1  0
  9 10  1  6
  9 24  1  0
 10 11  1  0
 11 22  1  0
 11 12  1  1
 11 13  1  0
 12 38  1  0
 12 39  1  0
 12 40  1  0
 13 14  1  0
 13 18  1  0
 13 41  1  1
 14 15  1  0
 15 16  1  0
 15 17  2  0
 16 42  1  0
 16 43  1  0
 16 44  1  0
 18 19  1  0
 18 20  1  0
 18 45  1  1
 19 46  1  0
 20 21  1  6
 20 22  1  0
 21 47  1  0
 21 48  1  0
 22 23  1  6
 23 49  1  0
 24 25  1  0
 24 50  1  6
 25 51  1  0
M  END
>  <i_m_ct_stereo_status>  (109) 
1

>  <s_m_source_file>  (109) 
/var/tmp/pbs.5076255.sched01/tmpa1vw3d_c/4207j0axjo.sdf

>  <i_m_source_file_index>  (109) 
12

>  <i_lp_mmshare_version>  (109) 
48012

>  <i_f3d_flags>  (109) 
0

>  <s_epik_input>  (109) 
W09IXVtDQEhdMUMoPVtDSDJdKVtDQEBIXShbQ0gyXTIpW0NIMl1bQ0BIXShbQ0gyXVtDQEhdM1tDSDNdKVtDQEBdMihbQ0BdNChbQ0BAXTEzNSlbT0hdKVtDQEhdKFtPSF0pW0NAQEhdKFtDQEBdNChPNSlbQ0gzXSlPQyg9TylbQ0gzXQ==

>  <s_epik_cmdline>  (109) 
J2VwaWtfcHl0aG9uJywgJy1waHQnLCAnMi4wJywgJy1waCcsICc3LjAnLCAnLXRuJywgJzgnLCAnLW1hJywgJzIwMCcsICctaW1hZScsICc8aW5maWxlLm1hZT4nLCAnLW9tYWUnLCAnPG91dGZpbGUubWFlPic=

>  <r_lp_tautomer_probability>  (109) 
1

>  <r_epik_Ionization_Penalty>  (109) 
7.40438e-07

>  <r_epik_Ionization_Penalty_Charging>  (109) 
0

>  <r_epik_Ionization_Penalty_Neutral>  (109) 
7.40438e-07

>  <r_epik_State_Penalty>  (109) 
-0

>  <r_epik_Charging_Adjusted_Penalty>  (109) 
0

>  <i_epik_Tot_Q>  (109) 
0

>  <i_epik_Tot_abs_Q>  (109) 
0

>  <s_epik_Chemistry_Notes>  (109) 
This compound has an ester and may undergo hydrolysis at high or low pH.

>  <s_lp_Force_Field>  (109) 
OPLS3e

>  <r_lp_Energy>  (109) 
89.1482

>  <b_lp_Chiralities_Consistent>  (109) 
1

>  <s_lp_Variant>  (109) 
36:0-1

>  <s_i_glide_gridfile>  (109) 
pfpi4k_grid

>  <i_i_glide_lignum>  (109) 
12

>  <i_i_glide_rotatable_bonds>  (109) 
5

>  <r_i_docking_score>  (109) 
-3.54044

>  <r_i_glide_ligand_efficiency>  (109) 
-0.141618

>  <r_i_glide_ligand_efficiency_sa>  (109) 
-0.414092

>  <r_i_glide_ligand_efficiency_ln>  (109) 
-0.83919

>  <r_i_glide_gscore>  (109) 
-3.54044

>  <r_i_glide_lipo>  (109) 
-0.86622

>  <r_i_glide_hbond>  (109) 
0

>  <r_i_glide_metal>  (109) 
-0

>  <r_i_glide_rewards>  (109) 
-1.02923

>  <r_i_glide_evdw>  (109) 
-18.2479

>  <r_i_glide_ecoul>  (109) 
-5.91885

>  <r_i_glide_erotb>  (109) 
0.155235

>  <r_i_glide_esite>  (109) 
0

>  <r_i_glide_emodel>  (109) 
-28.5303

>  <r_i_glide_energy>  (109) 
-24.1667

>  <r_i_glide_einternal>  (109) 
0.738456

>  <r_i_glide_intrahb_reward>  (109) 
-0

>  <i_i_glide_confnum>  (109) 
1

>  <i_i_glide_posenum>  (109) 
4

>  <r_i_glide_eff_state_penalty>  (109) 
0

>  <ligand_id>  (109) 
36

>  <original_smiles>  (109) 
C=C1C2CC3CC(C)C4(OC5(C)C(OC(C)=O)C(O)C3(C2)C54O)C1O

>  <smiles>  (109) 
[H]OC1([H])C(=C([H])[H])C2([H])C([H])([H])C3([H])C([H])([H])C([H])(C([H])([H])[H])C14OC1(C([H])([H])[H])C([H])(OC(=O)C([H])([H])[H])C([H])(O[H])C3(C2([H])[H])C14O[H]

$$$$
36:0:2
     RDKit          3D

 51 55  0  0  1  0  0  0  0  0999 V2000
    3.1445   -1.4661   -2.5925 C   0  0  0  0  0  0  0  0  0  0  0  0
    3.8353   -1.8654   -1.5248 C   0  0  0  0  0  0  0  0  0  0  0  0
    3.4534   -1.1992   -0.1331 C   0  0  2  0  0  0  0  0  0  0  0  0
    4.6452   -0.7026    0.6517 C   0  0  0  0  0  0  0  0  0  0  0  0
    4.9238   -1.8269    1.6742 C   0  0  2  0  0  0  0  0  0  0  0  0
    6.3612   -2.2517    1.5668 C   0  0  0  0  0  0  0  0  0  0  0  0
    6.6261   -2.9099    0.2160 C   0  0  1  0  0  0  0  0  0  0  0  0
    7.9856   -3.6614    0.2221 C   0  0  0  0  0  0  0  0  0  0  0  0
    5.3755   -3.6709   -0.3884 C   0  0  1  0  0  0  0  0  0  0  0  0
    5.7841   -5.0562   -0.1658 O   0  0  0  0  0  0  0  0  0  0  0  0
    4.6710   -5.3028    0.7735 C   0  0  1  0  0  0  0  0  0  0  0  0
    4.0160   -6.6252    0.3475 C   0  0  0  0  0  0  0  0  0  0  0  0
    4.6771   -5.1868    2.3232 C   0  0  1  0  0  0  0  0  0  0  0  0
    5.9944   -5.0869    2.8527 O   0  0  0  0  0  0  0  0  0  0  0  0
    6.8487   -6.1391    3.0141 C   0  0  0  0  0  0  0  0  0  0  0  0
    6.3842   -7.4844    2.4524 C   0  0  0  0  0  0  0  0  0  0  0  0
    7.9394   -6.0399    3.5465 O   0  0  0  0  0  0  0  0  0  0  0  0
    3.7472   -3.9438    2.6517 C   0  0  1  0  0  0  0  0  0  0  0  0
    3.8894   -3.4099    3.9538 O   0  0  0  0  0  0  0  0  0  0  0  0
    3.8515   -2.9601    1.4683 C   0  0  1  0  0  0  0  0  0  0  0  0
    2.7299   -2.0315    0.9793 C   0  0  0  0  0  0  0  0  0  0  0  0
    4.0944   -3.9829    0.3641 C   0  0  1  0  0  0  0  0  0  0  0  0
    2.8984   -4.2650   -0.3557 O   0  0  0  0  0  0  0  0  0  0  0  0
    4.9936   -2.9349   -1.7070 C   0  0  1  0  0  0  0  0  0  0  0  0
    4.6911   -3.8568   -2.7386 O   0  0  0  0  0  0  0  0  0  0  0  0
    3.3332   -1.8571   -3.5798 H   0  0  0  0  0  0  0  0  0  0  0  0
    2.3509   -0.7310   -2.4923 H   0  0  0  0  0  0  0  0  0  0  0  0
    2.8000   -0.3452   -0.3173 H   0  0  0  0  0  0  0  0  0  0  0  0
    5.4798   -0.4319    0.0101 H   0  0  0  0  0  0  0  0  0  0  0  0
    4.3802    0.1983    1.2022 H   0  0  0  0  0  0  0  0  0  0  0  0
    4.7798   -1.3926    2.6714 H   0  0  0  0  0  0  0  0  0  0  0  0
    7.0053   -1.3733    1.6932 H   0  0  0  0  0  0  0  0  0  0  0  0
    6.5570   -2.9034    2.4041 H   0  0  0  0  0  0  0  0  0  0  0  0
    6.8723   -2.0535   -0.4052 H   0  0  0  0  0  0  0  0  0  0  0  0
    7.9837   -4.5118    0.9060 H   0  0  0  0  0  0  0  0  0  0  0  0
    8.7803   -2.9856    0.5564 H   0  0  0  0  0  0  0  0  0  0  0  0
    8.2556   -4.0220   -0.7734 H   0  0  0  0  0  0  0  0  0  0  0  0
    3.0227   -6.7432    0.7907 H   0  0  0  0  0  0  0  0  0  0  0  0
    4.6182   -7.4908    0.6094 H   0  0  0  0  0  0  0  0  0  0  0  0
    3.9078   -6.6354   -0.7209 H   0  0  0  0  0  0  0  0  0  0  0  0
    4.1851   -6.0299    2.8044 H   0  0  0  0  0  0  0  0  0  0  0  0
    5.3295   -7.6764    2.6483 H   0  0  0  0  0  0  0  0  0  0  0  0
    6.9762   -8.3061    2.8400 H   0  0  0  0  0  0  0  0  0  0  0  0
    6.5474   -7.4695    1.3787 H   0  0  0  0  0  0  0  0  0  0  0  0
    2.7282   -4.3325    2.6060 H   0  0  0  0  0  0  0  0  0  0  0  0
    3.7771   -4.1225    4.5634 H   0  0  0  0  0  0  0  0  0  0  0  0
    2.3890   -1.3896    1.8021 H   0  0  0  0  0  0  0  0  0  0  0  0
    1.8217   -2.5071    0.6370 H   0  0  0  0  0  0  0  0  0  0  0  0
    3.1173   -4.9464   -0.9790 H   0  0  0  0  0  0  0  0  0  0  0  0
    5.8363   -2.3825   -2.1296 H   0  0  0  0  0  0  0  0  0  0  0  0
    4.0166   -4.4623   -2.4436 H   0  0  0  0  0  0  0  0  0  0  0  0
  1  2  2  0
  1 26  1  0
  1 27  1  0
  2 24  1  0
  2  3  1  0
  3 21  1  0
  3  4  1  0
  3 28  1  6
  4  5  1  0
  4 29  1  0
  4 30  1  0
  5 20  1  0
  5  6  1  0
  5 31  1  1
  6  7  1  0
  6 32  1  0
  6 33  1  0
  7  8  1  0
  7  9  1  0
  7 34  1  6
  8 35  1  0
  8 36  1  0
  8 37  1  0
  9 22  1  0
  9 10  1  6
  9 24  1  0
 10 11  1  0
 11 22  1  0
 11 12  1  1
 11 13  1  0
 12 38  1  0
 12 39  1  0
 12 40  1  0
 13 14  1  0
 13 18  1  0
 13 41  1  1
 14 15  1  0
 15 16  1  0
 15 17  2  0
 16 42  1  0
 16 43  1  0
 16 44  1  0
 18 19  1  0
 18 20  1  0
 18 45  1  1
 19 46  1  0
 20 21  1  6
 20 22  1  0
 21 47  1  0
 21 48  1  0
 22 23  1  6
 23 49  1  0
 24 25  1  0
 24 50  1  6
 25 51  1  0
M  END
>  <i_m_ct_stereo_status>  (110) 
1

>  <s_m_source_file>  (110) 
/var/tmp/pbs.5076255.sched01/tmpa1vw3d_c/4207j0axjo.sdf

>  <i_m_source_file_index>  (110) 
12

>  <i_lp_mmshare_version>  (110) 
48012

>  <i_f3d_flags>  (110) 
0

>  <s_epik_input>  (110) 
W09IXVtDQEhdMUMoPVtDSDJdKVtDQEBIXShbQ0gyXTIpW0NIMl1bQ0BIXShbQ0gyXVtDQEhdM1tDSDNdKVtDQEBdMihbQ0BdNChbQ0BAXTEzNSlbT0hdKVtDQEhdKFtPSF0pW0NAQEhdKFtDQEBdNChPNSlbQ0gzXSlPQyg9TylbQ0gzXQ==

>  <s_epik_cmdline>  (110) 
J2VwaWtfcHl0aG9uJywgJy1waHQnLCAnMi4wJywgJy1waCcsICc3LjAnLCAnLXRuJywgJzgnLCAnLW1hJywgJzIwMCcsICctaW1hZScsICc8aW5maWxlLm1hZT4nLCAnLW9tYWUnLCAnPG91dGZpbGUubWFlPic=

>  <r_lp_tautomer_probability>  (110) 
1

>  <r_epik_Ionization_Penalty>  (110) 
7.40438e-07

>  <r_epik_Ionization_Penalty_Charging>  (110) 
0

>  <r_epik_Ionization_Penalty_Neutral>  (110) 
7.40438e-07

>  <r_epik_State_Penalty>  (110) 
-0

>  <r_epik_Charging_Adjusted_Penalty>  (110) 
0

>  <i_epik_Tot_Q>  (110) 
0

>  <i_epik_Tot_abs_Q>  (110) 
0

>  <s_epik_Chemistry_Notes>  (110) 
This compound has an ester and may undergo hydrolysis at high or low pH.

>  <s_lp_Force_Field>  (110) 
OPLS3e

>  <r_lp_Energy>  (110) 
89.1482

>  <b_lp_Chiralities_Consistent>  (110) 
1

>  <s_lp_Variant>  (110) 
36:0-1

>  <s_i_glide_gridfile>  (110) 
pfpi4k_grid

>  <i_i_glide_lignum>  (110) 
12

>  <i_i_glide_rotatable_bonds>  (110) 
5

>  <r_i_docking_score>  (110) 
-3.47245

>  <r_i_glide_ligand_efficiency>  (110) 
-0.138898

>  <r_i_glide_ligand_efficiency_sa>  (110) 
-0.40614

>  <r_i_glide_ligand_efficiency_ln>  (110) 
-0.823075

>  <r_i_glide_gscore>  (110) 
-3.47245

>  <r_i_glide_lipo>  (110) 
-0.875715

>  <r_i_glide_hbond>  (110) 
0

>  <r_i_glide_metal>  (110) 
-0

>  <r_i_glide_rewards>  (110) 
-1.03381

>  <r_i_glide_evdw>  (110) 
-18.3885

>  <r_i_glide_ecoul>  (110) 
-5.32488

>  <r_i_glide_erotb>  (110) 
0.155235

>  <r_i_glide_esite>  (110) 
0

>  <r_i_glide_emodel>  (110) 
-25.2921

>  <r_i_glide_energy>  (110) 
-23.7134

>  <r_i_glide_einternal>  (110) 
5.60195

>  <r_i_glide_intrahb_reward>  (110) 
-0

>  <i_i_glide_confnum>  (110) 
1

>  <i_i_glide_posenum>  (110) 
21

>  <r_i_glide_eff_state_penalty>  (110) 
0

>  <ligand_id>  (110) 
36

>  <original_smiles>  (110) 
C=C1C2CC3CC(C)C4(OC5(C)C(OC(C)=O)C(O)C3(C2)C54O)C1O

>  <smiles>  (110) 
[H]OC1([H])C(=C([H])[H])C2([H])C([H])([H])C3([H])C([H])([H])C([H])(C([H])([H])[H])C14OC1(C([H])([H])[H])C([H])(OC(=O)C([H])([H])[H])C([H])(O[H])C3(C2([H])[H])C14O[H]

$$$$
38:7:0
     RDKit          3D

101108  0  0  1  0  0  0  0  0999 V2000
    0.3124   -3.7485    4.8078 C   0  0  0  0  0  0  0  0  0  0  0  0
    1.7685   -3.9515    5.2529 C   0  0  0  0  0  0  0  0  0  0  0  0
    2.3304   -5.1186    5.7014 C   0  0  0  0  0  0  0  0  0  0  0  0
    3.7981   -4.9100    6.1305 C   0  0  1  0  0  0  0  0  0  0  0  0
    4.3677   -5.6132    7.1969 O   0  0  0  0  0  0  0  0  0  0  0  0
    4.7141   -4.4956    4.9768 C   0  0  2  0  0  0  0  0  0  0  0  0
    4.1050   -3.1398    4.4205 C   0  0  0  0  0  0  0  0  0  0  0  0
    2.7065   -2.7287    5.0118 C   0  0  1  0  0  0  0  0  0  0  0  0
    2.1321   -1.7126    4.1886 O   0  0  0  0  0  0  0  0  0  0  0  0
    1.3322   -0.7377    4.7106 C   0  0  0  0  0  0  0  0  0  0  0  0
    1.0123   -0.6477    5.8895 O   0  0  0  0  0  0  0  0  0  0  0  0
    0.9262    0.2460    3.6927 C   0  0  0  0  0  0  0  0  0  0  0  0
    0.0278    1.2450    3.8481 C   0  0  0  0  0  0  0  0  0  0  0  0
   -0.8275    1.6089    4.9928 C   0  0  0  0  0  0  0  0  0  0  0  0
   -1.0046    2.9714    5.3346 C   0  0  0  0  0  0  0  0  0  0  0  0
   -1.7839    3.3070    6.4717 C   0  0  0  0  0  0  0  0  0  0  0  0
   -2.3709    2.2550    7.2051 C   0  0  0  0  0  0  0  0  0  0  0  0
   -2.2403    0.9515    6.8557 N   0  0  0  0  0  0  0  0  0  0  0  0
   -1.5039    0.6494    5.7735 C   0  0  0  0  0  0  0  0  0  0  0  0
    5.2551   -5.6863    4.0361 C   0  0  1  0  0  0  0  0  0  0  0  0
    6.0362   -6.7862    4.8690 C   0  0  2  0  0  0  0  0  0  0  0  0
    7.1356   -6.1485    5.7404 C   0  0  0  0  0  0  0  0  0  0  0  0
    6.5347   -8.0769    4.2865 C   0  0  0  0  0  0  0  0  0  0  0  0
    5.4714   -8.1190    5.3769 C   0  0  2  0  0  0  0  0  0  0  0  0
    3.9888   -8.4179    5.3554 C   0  0  0  0  0  0  0  0  0  0  0  0
    3.2655   -8.8795    4.2998 C   0  0  0  0  0  0  0  0  0  0  0  0
    4.0315   -9.4689    3.1081 C   0  0  1  0  0  0  0  0  0  0  0  0
    3.6035  -10.7942    2.8312 O   0  0  0  0  0  0  0  0  0  0  0  0
    4.0919   -8.6371    1.8079 C   0  0  0  0  0  0  0  0  0  0  0  0
    4.7576   -7.2285    1.6401 C   0  0  1  0  0  0  0  0  0  0  0  0
    4.4801   -6.9481    0.1282 C   0  0  0  0  0  0  0  0  0  0  0  0
    4.4659   -5.9517    2.5941 C   0  0  2  0  0  0  0  0  0  0  0  0
    5.1949   -4.8201    1.7346 C   0  0  0  0  0  0  0  0  0  0  0  0
    2.8913   -5.6143    2.6751 C   0  0  1  0  0  0  0  0  0  0  0  0
    2.4812   -4.8436    1.5438 O   0  0  0  0  0  0  0  0  0  0  0  0
    1.6256   -6.5047    3.0283 C   0  0  1  0  0  0  0  0  0  0  0  0
    1.2630   -7.1213    1.8022 O   0  0  0  0  0  0  0  0  0  0  0  0
    1.2289   -7.3239    4.3882 C   0  0  1  0  0  0  0  0  0  0  0  0
   -0.3550   -7.4528    4.3857 C   0  0  0  0  0  0  0  0  0  0  0  0
   -1.0095   -8.1706    3.2196 C   0  0  0  0  0  0  0  0  0  0  0  0
   -1.9207   -7.6365    2.5758 O   0  0  0  0  0  0  0  0  0  0  0  0
   -0.4814   -9.5413    2.8826 C   0  0  0  0  0  0  0  0  0  0  0  0
    1.0447   -9.6573    3.0671 C   0  0  0  0  0  0  0  0  0  0  0  0
    1.7035   -8.8856    4.3000 C   0  0  1  0  0  0  0  0  0  0  0  0
    1.1644   -9.8584    5.4194 C   0  0  0  0  0  0  0  0  0  0  0  0
    1.6020   -6.5075    5.8065 C   0  0  2  0  0  0  0  0  0  0  0  0
    0.3856   -6.1944    6.5082 O   0  0  0  0  0  0  0  0  0  0  0  0
    2.1628   -7.3724    6.9838 C   0  0  0  0  0  0  0  0  0  0  0  0
    3.4090   -8.2670    6.7693 C   0  0  1  0  0  0  0  0  0  0  0  0
    3.2859   -9.5231    7.4090 O   0  0  0  0  0  0  0  0  0  0  0  0
    0.3010   -3.4454    3.7667 H   0  0  0  0  0  0  0  0  0  0  0  0
   -0.1802   -2.9874    5.4121 H   0  0  0  0  0  0  0  0  0  0  0  0
   -0.2985   -4.6338    4.8576 H   0  0  0  0  0  0  0  0  0  0  0  0
    3.7334   -4.0193    6.7646 H   0  0  0  0  0  0  0  0  0  0  0  0
    4.6773   -6.4324    6.8644 H   0  0  0  0  0  0  0  0  0  0  0  0
    5.6016   -4.1090    5.4840 H   0  0  0  0  0  0  0  0  0  0  0  0
    4.8015   -2.3195    4.6093 H   0  0  0  0  0  0  0  0  0  0  0  0
    3.9661   -3.1269    3.3499 H   0  0  0  0  0  0  0  0  0  0  0  0
    2.8929   -2.2865    5.9907 H   0  0  0  0  0  0  0  0  0  0  0  0
    1.3770    0.1455    2.7107 H   0  0  0  0  0  0  0  0  0  0  0  0
   -0.0787    1.8966    2.9956 H   0  0  0  0  0  0  0  0  0  0  0  0
   -0.5299    3.7484    4.7697 H   0  0  0  0  0  0  0  0  0  0  0  0
   -1.9146    4.3295    6.7836 H   0  0  0  0  0  0  0  0  0  0  0  0
   -2.9569    2.4682    8.0877 H   0  0  0  0  0  0  0  0  0  0  0  0
   -1.4375   -0.4139    5.5247 H   0  0  0  0  0  0  0  0  0  0  0  0
    6.1757   -5.2080    3.6950 H   0  0  0  0  0  0  0  0  0  0  0  0
    7.7653   -6.9223    6.1812 H   0  0  0  0  0  0  0  0  0  0  0  0
    6.7357   -5.5822    6.5758 H   0  0  0  0  0  0  0  0  0  0  0  0
    7.7827   -5.5002    5.1448 H   0  0  0  0  0  0  0  0  0  0  0  0
    6.3592   -8.2729    3.2520 H   0  0  0  0  0  0  0  0  0  0  0  0
    7.5233   -8.4096    4.5674 H   0  0  0  0  0  0  0  0  0  0  0  0
    5.9061   -8.5568    6.2809 H   0  0  0  0  0  0  0  0  0  0  0  0
    5.0227   -9.7568    3.4224 H   0  0  0  0  0  0  0  0  0  0  0  0
    3.9136  -11.0808    1.9815 H   0  0  0  0  0  0  0  0  0  0  0  0
    4.6757   -9.2861    1.1498 H   0  0  0  0  0  0  0  0  0  0  0  0
    3.1285   -8.6280    1.3139 H   0  0  0  0  0  0  0  0  0  0  0  0
    5.8369   -7.3572    1.6066 H   0  0  0  0  0  0  0  0  0  0  0  0
    3.4638   -6.5919   -0.0376 H   0  0  0  0  0  0  0  0  0  0  0  0
    4.6086   -7.8462   -0.4700 H   0  0  0  0  0  0  0  0  0  0  0  0
    5.1708   -6.2444   -0.3350 H   0  0  0  0  0  0  0  0  0  0  0  0
    4.6978   -4.5205    0.8149 H   0  0  0  0  0  0  0  0  0  0  0  0
    6.1842   -5.1626    1.4354 H   0  0  0  0  0  0  0  0  0  0  0  0
    5.4051   -3.8891    2.2436 H   0  0  0  0  0  0  0  0  0  0  0  0
    2.8259   -4.8281    3.3531 H   0  0  0  0  0  0  0  0  0  0  0  0
    3.0851   -4.1342    1.4371 H   0  0  0  0  0  0  0  0  0  0  0  0
    0.8574   -5.7347    3.0603 H   0  0  0  0  0  0  0  0  0  0  0  0
    1.7954   -7.8828    1.6932 H   0  0  0  0  0  0  0  0  0  0  0  0
   -0.7006   -7.9808    5.2717 H   0  0  0  0  0  0  0  0  0  0  0  0
   -0.8292   -6.4853    4.4121 H   0  0  0  0  0  0  0  0  0  0  0  0
   -0.9845  -10.2610    3.5189 H   0  0  0  0  0  0  0  0  0  0  0  0
   -0.7509   -9.7996    1.8638 H   0  0  0  0  0  0  0  0  0  0  0  0
    1.2198  -10.7286    3.1873 H   0  0  0  0  0  0  0  0  0  0  0  0
    1.4948   -9.4577    2.1069 H   0  0  0  0  0  0  0  0  0  0  0  0
    0.2235  -10.3487    5.1747 H   0  0  0  0  0  0  0  0  0  0  0  0
    0.8954   -9.4430    6.3636 H   0  0  0  0  0  0  0  0  0  0  0  0
    1.8544  -10.6830    5.5734 H   0  0  0  0  0  0  0  0  0  0  0  0
    0.0030   -6.9920    6.7992 H   0  0  0  0  0  0  0  0  0  0  0  0
    2.3747   -6.7066    7.8225 H   0  0  0  0  0  0  0  0  0  0  0  0
    1.3988   -7.9536    7.4925 H   0  0  0  0  0  0  0  0  0  0  0  0
    4.1969   -7.8967    7.4189 H   0  0  0  0  0  0  0  0  0  0  0  0
    2.6204  -10.0374    6.9789 H   0  0  0  0  0  0  0  0  0  0  0  0
  1  2  1  0
  1 51  1  0
  1 52  1  0
  1 53  1  0
  2  8  1  0
  2  3  2  0
  3 46  1  0
  3  4  1  0
  4  5  1  0
  4  6  1  0
  4 54  1  1
  5 55  1  0
  6  7  1  0
  6 20  1  0
  6 56  1  1
  7  8  1  0
  7 57  1  0
  7 58  1  0
  8  9  1  0
  8 59  1  1
  9 10  1  0
 10 11  2  0
 10 12  1  0
 12 13  2  3
 12 60  1  0
 13 14  1  0
 13 61  1  0
 14 19  1  0
 14 15  2  0
 15 16  1  0
 15 62  1  0
 16 17  2  0
 16 63  1  0
 17 18  1  0
 17 64  1  0
 18 19  2  0
 19 65  1  0
 20 32  1  0
 20 21  1  0
 20 66  1  6
 21 24  1  0
 21 22  1  1
 21 23  1  0
 22 67  1  0
 22 68  1  0
 22 69  1  0
 23 24  1  0
 23 70  1  0
 23 71  1  0
 24 25  1  0
 24 72  1  1
 25 49  1  0
 25 26  2  0
 26 44  1  0
 26 27  1  0
 27 28  1  0
 27 29  1  0
 27 73  1  1
 28 74  1  0
 29 30  1  0
 29 75  1  0
 29 76  1  0
 30 31  1  0
 30 32  1  0
 30 77  1  6
 31 78  1  0
 31 79  1  0
 31 80  1  0
 32 33  1  6
 32 34  1  0
 33 81  1  0
 33 82  1  0
 33 83  1  0
 34 35  1  0
 34 36  1  0
 34 84  1  1
 35 85  1  0
 36 37  1  0
 36 38  1  0
 36 86  1  1
 37 87  1  0
 38 44  1  0
 38 39  1  6
 38 46  1  0
 39 40  1  0
 39 88  1  0
 39 89  1  0
 40 41  2  0
 40 42  1  0
 42 43  1  0
 42 90  1  0
 42 91  1  0
 43 44  1  0
 43 92  1  0
 43 93  1  0
 44 45  1  1
 45 94  1  0
 45 95  1  0
 45 96  1  0
 46 47  1  1
 46 48  1  0
 47 97  1  0
 48 49  1  0
 48 98  1  0
 48 99  1  0
 49 50  1  0
 49100  1  1
 50101  1  0
M  END
>  <i_m_ct_stereo_status>  (111) 
1

>  <s_m_source_file>  (111) 
/var/tmp/pbs.5076255.sched01/tmpa1vw3d_c/4207j0axjo.sdf

>  <i_m_source_file_index>  (111) 
21

>  <i_lp_mmshare_version>  (111) 
48012

>  <i_f3d_flags>  (111) 
3

>  <s_epik_input>  (111) 
W2NIXTFuW2NIXVtjSF1bY0hdYzFcW0NIXT1bQ0hdXEMoPU8pT1tDQEhdKFtDSDJdMilDKFtDSDNdKT1DKFtDQF0zKFtPSF0pW0NIMl1bQ0BIXTRbT0hdKVtDQEBIXShbT0hdKVtDQEhdMltDQEBIXShbQ0BAXShbQ0gzXSkoW0NIXShbT0hdKVtDSF01W09IXSlbQ0BIXShbQ0gzXSlbQ0gyXVtDQEBIXTZbT0hdKVtDQEBdKFtDSDNdKShbQ0gyXTcpW0NAQEhdN0M0PUM2W0NAXShbQ0BAXTM1OCkoW0NIM10pW0NIMl1bQ0gyXUMoPU8pW0NIMl04

>  <s_epik_cmdline>  (111) 
J2VwaWtfcHl0aG9uJywgJy1waHQnLCAnMi4wJywgJy1waCcsICc3LjAnLCAnLXRuJywgJzgnLCAnLW1hJywgJzIwMCcsICctaW1hZScsICc8aW5maWxlLm1hZT4nLCAnLW9tYWUnLCAnPG91dGZpbGUubWFlPic=

>  <r_lp_tautomer_probability>  (111) 
1

>  <r_epik_Ionization_Penalty>  (111) 
0.000968277

>  <r_epik_Ionization_Penalty_Charging>  (111) 
0

>  <r_epik_Ionization_Penalty_Neutral>  (111) 
0.000968277

>  <r_epik_State_Penalty>  (111) 
0.000629336

>  <r_epik_Charging_Adjusted_Penalty>  (111) 
0.000629336

>  <i_epik_Tot_Q>  (111) 
0

>  <i_epik_Tot_abs_Q>  (111) 
0

>  <s_epik_Chemistry_Notes>  (111) 
This compound has an ester and may undergo hydrolysis at high or low pH.

>  <s_lp_Force_Field>  (111) 
OPLS3e

>  <r_lp_Energy>  (111) 
290.099

>  <b_lp_Chiralities_Consistent>  (111) 
0

>  <s_lp_Variant>  (111) 
38:0-8

>  <s_i_glide_gridfile>  (111) 
pfpi4k_grid

>  <i_i_glide_lignum>  (111) 
21

>  <i_i_glide_rotatable_bonds>  (111) 
10

>  <r_i_docking_score>  (111) 
-3.89364

>  <r_i_glide_ligand_efficiency>  (111) 
-0.0778727

>  <r_i_glide_ligand_efficiency_sa>  (111) 
-0.286886

>  <r_i_glide_ligand_efficiency_ln>  (111) 
-0.792675

>  <r_i_glide_gscore>  (111) 
-3.89364

>  <r_i_glide_lipo>  (111) 
-0.313987

>  <r_i_glide_hbond>  (111) 
-0.32

>  <r_i_glide_metal>  (111) 
-0

>  <r_i_glide_rewards>  (111) 
0

>  <r_i_glide_evdw>  (111) 
-38.0907

>  <r_i_glide_ecoul>  (111) 
-9.53699

>  <r_i_glide_erotb>  (111) 
0.134898

>  <r_i_glide_esite>  (111) 
-0.0594645

>  <r_i_glide_emodel>  (111) 
-58.5564

>  <r_i_glide_energy>  (111) 
-47.6277

>  <r_i_glide_einternal>  (111) 
4.83364

>  <r_i_glide_intrahb_reward>  (111) 
-0

>  <i_i_glide_confnum>  (111) 
2

>  <i_i_glide_posenum>  (111) 
8

>  <r_i_glide_eff_state_penalty>  (111) 
0

>  <ligand_id>  (111) 
38

>  <original_smiles>  (111) 
CC1=C2C(O)C(CC1OC(=O)C=Cc1cccnc1)C1C3(C)CC3C3=C4C(O)CC(C)C1(C)C(O)C(O)C1(CC(=O)CCC41C)C2(O)CC3O

>  <smiles>  (111) 
[H]OC1([H])C2=C3C([H])(O[H])C([H])([H])C([H])(C([H])([H])[H])C4(C([H])([H])[H])C([H])(O[H])C([H])(O[H])C5(C([H])([H])C(=O)C([H])([H])C([H])([H])C35C([H])([H])[H])C(O[H])(C3=C(C([H])([H])[H])C([H])(OC(=O)C([H])=C([H])c5c([H])nc([H])c([H])c5[H])C([H])([H])C([H])(C3([H])O[H])C4([H])C3(C([H])([H])[H])C([H])([H])C23[H])C1([H])[H]

$$$$
38:9:0
     RDKit          3D

101108  0  0  1  0  0  0  0  0999 V2000
    5.5696   -2.3966    2.8431 C   0  0  0  0  0  0  0  0  0  0  0  0
    5.1689   -3.7177    3.3997 C   0  0  0  0  0  0  0  0  0  0  0  0
    5.0201   -3.9596    4.7339 C   0  0  0  0  0  0  0  0  0  0  0  0
    5.1120   -5.6006    4.7847 C   0  0  2  0  0  0  0  0  0  0  0  0
    6.2984   -6.1018    4.1790 O   0  0  0  0  0  0  0  0  0  0  0  0
    3.7844   -6.4906    4.2841 C   0  0  2  0  0  0  0  0  0  0  0  0
    3.7432   -5.9853    2.8093 C   0  0  0  0  0  0  0  0  0  0  0  0
    4.7355   -4.7888    2.3142 C   0  0  1  0  0  0  0  0  0  0  0  0
    4.2818   -4.0981    1.1391 O   0  0  0  0  0  0  0  0  0  0  0  0
    3.7071   -4.7264    0.0829 C   0  0  0  0  0  0  0  0  0  0  0  0
    3.3487   -5.8858    0.0783 O   0  0  0  0  0  0  0  0  0  0  0  0
    3.5100   -3.8738   -1.1238 C   0  0  0  0  0  0  0  0  0  0  0  0
    4.2536   -2.8190   -1.5092 C   0  0  0  0  0  0  0  0  0  0  0  0
    5.4475   -2.3066   -0.8605 C   0  0  0  0  0  0  0  0  0  0  0  0
    6.7150   -2.9322   -0.9813 C   0  0  0  0  0  0  0  0  0  0  0  0
    7.8217   -2.3382   -0.3231 C   0  0  0  0  0  0  0  0  0  0  0  0
    7.5898   -1.1736    0.4272 C   0  0  0  0  0  0  0  0  0  0  0  0
    6.3994   -0.5531    0.4702 N   0  0  0  0  0  0  0  0  0  0  0  0
    5.3539   -1.0868   -0.1623 C   0  0  0  0  0  0  0  0  0  0  0  0
    2.2914   -6.8734    5.2162 C   0  0  2  0  0  0  0  0  0  0  0  0
    0.8521   -6.2759    5.0313 C   0  0  1  0  0  0  0  0  0  0  0  0
    0.2718   -6.6244    3.6616 C   0  0  0  0  0  0  0  0  0  0  0  0
   -0.2600   -6.4927    6.0172 C   0  0  0  0  0  0  0  0  0  0  0  0
    0.3098   -5.1048    5.9946 C   0  0  1  0  0  0  0  0  0  0  0  0
    1.0015   -3.9677    6.9907 C   0  0  0  0  0  0  0  0  0  0  0  0
    0.2001   -3.0768    7.0806 C   0  0  0  0  0  0  0  0  0  0  0  0
   -0.2322   -3.8371    8.4331 C   0  0  1  0  0  0  0  0  0  0  0  0
   -1.6451   -3.8872    8.4646 O   0  0  0  0  0  0  0  0  0  0  0  0
    0.2396   -5.4753    8.7423 C   0  0  0  0  0  0  0  0  0  0  0  0
    1.5178   -6.5018    8.2144 C   0  0  1  0  0  0  0  0  0  0  0  0
    1.1898   -7.9097    8.8043 C   0  0  0  0  0  0  0  0  0  0  0  0
    2.4813   -6.6742    6.7632 C   0  0  1  0  0  0  0  0  0  0  0  0
    3.4612   -7.8816    7.0523 C   0  0  0  0  0  0  0  0  0  0  0  0
    3.0491   -5.3362    6.2989 C   0  0  2  0  0  0  0  0  0  0  0  0
    4.0173   -5.4799    7.3744 O   0  0  0  0  0  0  0  0  0  0  0  0
    2.5513   -4.0824    5.0045 C   0  0  1  0  0  0  0  0  0  0  0  0
    1.5507   -4.0601    3.9748 O   0  0  0  0  0  0  0  0  0  0  0  0
    2.5229   -2.5482    5.3170 C   0  0  1  0  0  0  0  0  0  0  0  0
    2.6525   -1.6092    4.0640 C   0  0  0  0  0  0  0  0  0  0  0  0
    1.4177   -1.2186    3.3037 C   0  0  0  0  0  0  0  0  0  0  0  0
    1.3256   -1.3952    2.0815 O   0  0  0  0  0  0  0  0  0  0  0  0
    0.3106   -0.6082    4.1002 C   0  0  0  0  0  0  0  0  0  0  0  0
   -0.0231   -1.5823    5.2314 C   0  0  0  0  0  0  0  0  0  0  0  0
    1.1099   -1.9836    6.2533 C   0  0  1  0  0  0  0  0  0  0  0  0
    1.3412   -0.6277    6.9900 C   0  0  0  0  0  0  0  0  0  0  0  0
    4.0893   -2.8045    5.7223 C   0  0  2  0  0  0  0  0  0  0  0  0
    4.8077   -1.5763    5.6954 O   0  0  0  0  0  0  0  0  0  0  0  0
    3.7699   -2.8300    7.2964 C   0  0  0  0  0  0  0  0  0  0  0  0
    2.3700   -3.4860    7.9135 C   0  0  1  0  0  0  0  0  0  0  0  0
    2.1537   -2.6121    9.0232 O   0  0  0  0  0  0  0  0  0  0  0  0
    6.4016   -2.6606    2.2053 H   0  0  0  0  0  0  0  0  0  0  0  0
    5.9369   -1.6706    3.5555 H   0  0  0  0  0  0  0  0  0  0  0  0
    4.7915   -1.9323    2.2648 H   0  0  0  0  0  0  0  0  0  0  0  0
    5.5058   -5.9412    5.7375 H   0  0  0  0  0  0  0  0  0  0  0  0
    6.2081   -6.1246    3.2496 H   0  0  0  0  0  0  0  0  0  0  0  0
    4.2061   -7.4903    4.1899 H   0  0  0  0  0  0  0  0  0  0  0  0
    3.9429   -6.8958    2.2458 H   0  0  0  0  0  0  0  0  0  0  0  0
    2.7365   -5.6882    2.5399 H   0  0  0  0  0  0  0  0  0  0  0  0
    5.6579   -5.2516    1.9675 H   0  0  0  0  0  0  0  0  0  0  0  0
    2.6830   -4.1438   -1.7521 H   0  0  0  0  0  0  0  0  0  0  0  0
    3.9555   -2.2895   -2.4002 H   0  0  0  0  0  0  0  0  0  0  0  0
    6.8406   -3.8365   -1.5475 H   0  0  0  0  0  0  0  0  0  0  0  0
    8.8245   -2.7420   -0.3997 H   0  0  0  0  0  0  0  0  0  0  0  0
    8.4033   -0.6617    0.9335 H   0  0  0  0  0  0  0  0  0  0  0  0
    4.4010   -0.6160    0.0205 H   0  0  0  0  0  0  0  0  0  0  0  0
    2.1233   -7.9409    5.0159 H   0  0  0  0  0  0  0  0  0  0  0  0
   -0.5442   -5.9263    3.4697 H   0  0  0  0  0  0  0  0  0  0  0  0
   -0.1402   -7.6326    3.6261 H   0  0  0  0  0  0  0  0  0  0  0  0
    0.9727   -6.5124    2.8475 H   0  0  0  0  0  0  0  0  0  0  0  0
   -1.2631   -6.5379    5.5923 H   0  0  0  0  0  0  0  0  0  0  0  0
   -0.0991   -7.2843    6.7152 H   0  0  0  0  0  0  0  0  0  0  0  0
   -0.4598   -4.5310    5.4796 H   0  0  0  0  0  0  0  0  0  0  0  0
   -0.0599   -3.2118    9.3067 H   0  0  0  0  0  0  0  0  0  0  0  0
   -1.9309   -4.6547    8.0067 H   0  0  0  0  0  0  0  0  0  0  0  0
    0.3057   -5.5062    9.8315 H   0  0  0  0  0  0  0  0  0  0  0  0
   -0.6663   -6.0597    8.5673 H   0  0  0  0  0  0  0  0  0  0  0  0
    2.2752   -6.2251    8.9459 H   0  0  0  0  0  0  0  0  0  0  0  0
    0.8100   -8.6202    8.0698 H   0  0  0  0  0  0  0  0  0  0  0  0
    0.4517   -7.8551    9.6068 H   0  0  0  0  0  0  0  0  0  0  0  0
    2.0634   -8.3770    9.2590 H   0  0  0  0  0  0  0  0  0  0  0  0
    3.8794   -7.8547    8.0554 H   0  0  0  0  0  0  0  0  0  0  0  0
    4.3113   -7.9401    6.3716 H   0  0  0  0  0  0  0  0  0  0  0  0
    2.9361   -8.8396    6.9594 H   0  0  0  0  0  0  0  0  0  0  0  0
    4.0028   -4.9621    6.5637 H   0  0  0  0  0  0  0  0  0  0  0  0
    4.6891   -6.0695    7.1076 H   0  0  0  0  0  0  0  0  0  0  0  0
    2.9502   -4.2109    4.0445 H   0  0  0  0  0  0  0  0  0  0  0  0
    0.7174   -3.9730    4.3854 H   0  0  0  0  0  0  0  0  0  0  0  0
    3.1587   -0.6718    4.2970 H   0  0  0  0  0  0  0  0  0  0  0  0
    3.2280   -2.1238    3.3227 H   0  0  0  0  0  0  0  0  0  0  0  0
    0.6292    0.3723    4.4602 H   0  0  0  0  0  0  0  0  0  0  0  0
   -0.5519   -0.4435    3.4582 H   0  0  0  0  0  0  0  0  0  0  0  0
   -0.8705   -1.1609    5.7741 H   0  0  0  0  0  0  0  0  0  0  0  0
   -0.4358   -2.4707    4.7447 H   0  0  0  0  0  0  0  0  0  0  0  0
    1.6192    0.1547    6.2947 H   0  0  0  0  0  0  0  0  0  0  0  0
    2.1319   -0.5985    7.7205 H   0  0  0  0  0  0  0  0  0  0  0  0
    0.4376   -0.3081    7.5004 H   0  0  0  0  0  0  0  0  0  0  0  0
    5.6094   -1.6851    6.1588 H   0  0  0  0  0  0  0  0  0  0  0  0
    4.6459   -3.2081    7.8284 H   0  0  0  0  0  0  0  0  0  0  0  0
    3.7966   -1.7970    7.6423 H   0  0  0  0  0  0  0  0  0  0  0  0
    2.6107   -4.2561    8.6229 H   0  0  0  0  0  0  0  0  0  0  0  0
    2.1923   -1.7301    8.7180 H   0  0  0  0  0  0  0  0  0  0  0  0
  1  2  1  0
  1 51  1  0
  1 52  1  0
  1 53  1  0
  2  8  1  0
  2  3  2  0
  3 46  1  0
  3  4  1  0
  4  5  1  0
  4  6  1  0
  4 54  1  1
  5 55  1  0
  6  7  1  0
  6 20  1  0
  6 56  1  6
  7  8  1  0
  7 57  1  0
  7 58  1  0
  8  9  1  0
  8 59  1  6
  9 10  1  0
 10 11  2  0
 10 12  1  0
 12 13  2  3
 12 60  1  0
 13 14  1  0
 13 61  1  0
 14 19  1  0
 14 15  2  0
 15 16  1  0
 15 62  1  0
 16 17  2  0
 16 63  1  0
 17 18  1  0
 17 64  1  0
 18 19  2  0
 19 65  1  0
 20 32  1  0
 20 21  1  0
 20 66  1  1
 21 24  1  0
 21 22  1  6
 21 23  1  0
 22 67  1  0
 22 68  1  0
 22 69  1  0
 23 24  1  0
 23 70  1  0
 23 71  1  0
 24 25  1  0
 24 72  1  6
 25 49  1  0
 25 26  2  0
 26 44  1  0
 26 27  1  0
 27 28  1  0
 27 29  1  0
 27 73  1  1
 28 74  1  0
 29 30  1  0
 29 75  1  0
 29 76  1  0
 30 31  1  0
 30 32  1  0
 30 77  1  1
 31 78  1  0
 31 79  1  0
 31 80  1  0
 32 33  1  1
 32 34  1  0
 33 81  1  0
 33 82  1  0
 33 83  1  0
 34 35  1  0
 34 36  1  0
 34 84  1  6
 35 85  1  0
 36 37  1  0
 36 38  1  0
 36 86  1  6
 37 87  1  0
 38 44  1  0
 38 39  1  6
 38 46  1  0
 39 40  1  0
 39 88  1  0
 39 89  1  0
 40 41  2  0
 40 42  1  0
 42 43  1  0
 42 90  1  0
 42 91  1  0
 43 44  1  0
 43 92  1  0
 43 93  1  0
 44 45  1  1
 45 94  1  0
 45 95  1  0
 45 96  1  0
 46 47  1  1
 46 48  1  0
 47 97  1  0
 48 49  1  0
 48 98  1  0
 48 99  1  0
 49 50  1  0
 49100  1  1
 50101  1  0
M  END
>  <i_m_ct_stereo_status>  (112) 
1

>  <s_m_source_file>  (112) 
/var/tmp/pbs.5076255.sched01/tmpa1vw3d_c/4207j0axjo.sdf

>  <i_m_source_file_index>  (112) 
23

>  <i_lp_mmshare_version>  (112) 
48012

>  <i_f3d_flags>  (112) 
0

>  <s_epik_input>  (112) 
W2NIXTFuW2NIXVtjSF1bY0hdYzFcW0NIXT1bQ0hdXEMoPU8pT1tDQEhdKFtDSDJdMilDKFtDSDNdKT1DKFtDQF0zKFtPSF0pW0NIMl1bQ0BIXTRbT0hdKVtDQEBIXShbT0hdKVtDQEhdMltDQEBIXShbQ0BAXShbQ0gzXSkoW0NIXShbT0hdKVtDSF01W09IXSlbQ0BIXShbQ0gzXSlbQ0gyXVtDQEBIXTZbT0hdKVtDQEBdKFtDSDNdKShbQ0gyXTcpW0NAQEhdN0M0PUM2W0NAXShbQ0BAXTM1OCkoW0NIM10pW0NIMl1bQ0gyXUMoPU8pW0NIMl04

>  <s_epik_cmdline>  (112) 
J2VwaWtfcHl0aG9uJywgJy1waHQnLCAnMi4wJywgJy1waCcsICc3LjAnLCAnLXRuJywgJzgnLCAnLW1hJywgJzIwMCcsICctaW1hZScsICc8aW5maWxlLm1hZT4nLCAnLW9tYWUnLCAnPG91dGZpbGUubWFlPic=

>  <r_lp_tautomer_probability>  (112) 
1

>  <r_epik_Ionization_Penalty>  (112) 
0.000968277

>  <r_epik_Ionization_Penalty_Charging>  (112) 
0

>  <r_epik_Ionization_Penalty_Neutral>  (112) 
0.000968277

>  <r_epik_State_Penalty>  (112) 
0.000629336

>  <r_epik_Charging_Adjusted_Penalty>  (112) 
0.000629336

>  <i_epik_Tot_Q>  (112) 
0

>  <i_epik_Tot_abs_Q>  (112) 
0

>  <s_epik_Chemistry_Notes>  (112) 
This compound has an ester and may undergo hydrolysis at high or low pH.

>  <s_lp_Force_Field>  (112) 
OPLS3e

>  <r_lp_Energy>  (112) 
1010.78

>  <b_lp_Chiralities_Consistent>  (112) 
1

>  <s_lp_Variant>  (112) 
38:0-10

>  <s_i_glide_gridfile>  (112) 
pfpi4k_grid

>  <i_i_glide_lignum>  (112) 
23

>  <i_i_glide_rotatable_bonds>  (112) 
10

>  <r_i_docking_score>  (112) 
-1.23311

>  <r_i_glide_ligand_efficiency>  (112) 
-0.0246621

>  <r_i_glide_ligand_efficiency_sa>  (112) 
-0.0908561

>  <r_i_glide_ligand_efficiency_ln>  (112) 
-0.251038

>  <r_i_glide_gscore>  (112) 
-1.23311

>  <r_i_glide_lipo>  (112) 
-0.101293

>  <r_i_glide_hbond>  (112) 
-0.0506838

>  <r_i_glide_metal>  (112) 
-0

>  <r_i_glide_rewards>  (112) 
0

>  <r_i_glide_evdw>  (112) 
-23.2708

>  <r_i_glide_ecoul>  (112) 
-0.187633

>  <r_i_glide_erotb>  (112) 
0.134898

>  <r_i_glide_esite>  (112) 
-0.0243436

>  <r_i_glide_emodel>  (112) 
-16.9938

>  <r_i_glide_energy>  (112) 
-23.4584

>  <r_i_glide_einternal>  (112) 
11.6997

>  <r_i_glide_intrahb_reward>  (112) 
-0

>  <i_i_glide_confnum>  (112) 
3

>  <i_i_glide_posenum>  (112) 
8

>  <r_i_glide_eff_state_penalty>  (112) 
0

>  <ligand_id>  (112) 
38

>  <original_smiles>  (112) 
CC1=C2C(O)C(CC1OC(=O)C=Cc1cccnc1)C1C3(C)CC3C3=C4C(O)CC(C)C1(C)C(O)C(O)C1(CC(=O)CCC41C)C2(O)CC3O

>  <smiles>  (112) 
[H]OC1([H])C2=C3C([H])(O[H])C([H])([H])C([H])(C([H])([H])[H])C4(C([H])([H])[H])C([H])(O[H])C([H])(O[H])C5(C([H])([H])C(=O)C([H])([H])C([H])([H])C35C([H])([H])[H])C(O[H])(C3=C(C([H])([H])[H])C([H])(OC(=O)C([H])=C([H])c5c([H])nc([H])c([H])c5[H])C([H])([H])C([H])(C3([H])O[H])C4([H])C3(C([H])([H])[H])C([H])([H])C23[H])C1([H])[H]

$$$$
39:0:0
     RDKit          3D

 41 44  0  0  1  0  0  0  0  0999 V2000
    2.8898   -2.9249   -2.8497 C   0  0  0  0  0  0  0  0  0  0  0  0
    3.2596   -2.6662   -1.3935 C   0  0  2  0  0  0  0  0  0  0  0  0
    4.7140   -2.1589   -1.2962 C   0  0  0  0  0  0  0  0  0  0  0  0
    5.2211   -2.0934    0.1470 C   0  0  0  0  0  0  0  0  0  0  0  0
    6.5804   -1.3886    0.1064 C   0  0  0  0  0  0  0  0  0  0  0  0
    4.3458   -1.1537    0.9813 C   0  0  0  0  0  0  0  0  0  0  0  0
    5.2867   -3.5503    0.7596 C   0  0  1  0  0  0  0  0  0  0  0  0
    3.8543   -4.2478    0.5284 C   0  0  0  0  0  0  0  0  0  0  0  0
    3.4653   -5.3698    1.3122 C   0  0  0  0  0  0  0  0  0  0  0  0
    2.3229   -6.1555    1.0618 C   0  0  0  0  0  0  0  0  0  0  0  0
    1.4895   -5.7429    0.0512 C   0  0  0  0  0  0  0  0  0  0  0  0
    1.7944   -4.6256   -0.7054 C   0  0  0  0  0  0  0  0  0  0  0  0
    3.0129   -3.8507   -0.4859 C   0  0  0  0  0  0  0  0  0  0  0  0
    6.4330   -4.4850    0.2844 C   0  0  2  0  0  0  0  0  0  0  0  0
    6.3764   -5.8464    0.9408 C   0  0  0  0  0  0  0  0  0  0  0  0
    6.1699   -5.2686    2.3555 C   0  0  0  0  0  0  0  0  0  0  0  0
    6.0217   -5.8848    3.3938 O   0  0  0  0  0  0  0  0  0  0  0  0
    6.1308   -3.8189    2.0637 C   0  0  1  0  0  0  0  0  0  0  0  0
    7.4185   -3.7911    1.2289 C   0  0  0  0  0  0  0  0  0  0  0  0
    1.8264   -3.1441   -2.9536 H   0  0  0  0  0  0  0  0  0  0  0  0
    3.4531   -3.7779   -3.2319 H   0  0  0  0  0  0  0  0  0  0  0  0
    3.0823   -2.0523   -3.4621 H   0  0  0  0  0  0  0  0  0  0  0  0
    2.6183   -1.8644   -1.0247 H   0  0  0  0  0  0  0  0  0  0  0  0
    5.3494   -2.8264   -1.8784 H   0  0  0  0  0  0  0  0  0  0  0  0
    4.7984   -1.1820   -1.7725 H   0  0  0  0  0  0  0  0  0  0  0  0
    6.9168   -1.2825    1.1362 H   0  0  0  0  0  0  0  0  0  0  0  0
    6.6125   -0.3708   -0.2772 H   0  0  0  0  0  0  0  0  0  0  0  0
    7.2596   -1.9585   -0.5235 H   0  0  0  0  0  0  0  0  0  0  0  0
    4.7591   -1.0244    1.9830 H   0  0  0  0  0  0  0  0  0  0  0  0
    3.3277   -1.5222    1.0823 H   0  0  0  0  0  0  0  0  0  0  0  0
    4.3086   -0.1721    0.5005 H   0  0  0  0  0  0  0  0  0  0  0  0
    3.9573   -5.8341    2.1089 H   0  0  0  0  0  0  0  0  0  0  0  0
    2.1697   -7.0201    1.6795 H   0  0  0  0  0  0  0  0  0  0  0  0
    0.5815   -6.3192   -0.1150 H   0  0  0  0  0  0  0  0  0  0  0  0
    1.0915   -4.3282   -1.4701 H   0  0  0  0  0  0  0  0  0  0  0  0
    6.5838   -4.3974   -0.7827 H   0  0  0  0  0  0  0  0  0  0  0  0
    5.5617   -6.4629    0.5513 H   0  0  0  0  0  0  0  0  0  0  0  0
    7.3330   -6.3460    0.8153 H   0  0  0  0  0  0  0  0  0  0  0  0
    5.9833   -3.1414    2.8969 H   0  0  0  0  0  0  0  0  0  0  0  0
    8.2415   -4.4129    1.5612 H   0  0  0  0  0  0  0  0  0  0  0  0
    8.0027   -2.9109    1.0368 H   0  0  0  0  0  0  0  0  0  0  0  0
  1  2  1  0
  1 20  1  0
  1 21  1  0
  1 22  1  0
  2 13  1  0
  2  3  1  0
  2 23  1  1
  3  4  1  0
  3 24  1  0
  3 25  1  0
  4  5  1  0
  4  6  1  0
  7  4  1  6
  5 26  1  0
  5 27  1  0
  5 28  1  0
  6 29  1  0
  6 30  1  0
  6 31  1  0
  7 18  1  0
  7  8  1  0
  7 14  1  0
  8 13  2  0
  8  9  1  0
  9 10  2  0
  9 32  1  0
 10 11  1  0
 10 33  1  0
 11 12  2  0
 11 34  1  0
 12 13  1  0
 12 35  1  0
 14 19  1  0
 14 15  1  0
 14 36  1  6
 15 16  1  0
 15 37  1  0
 15 38  1  0
 16 17  2  0
 16 18  1  0
 18 19  1  0
 18 39  1  1
 19 40  1  0
 19 41  1  0
M  END
>  <i_m_ct_stereo_status>  (113) 
1

>  <s_m_source_file>  (113) 
/var/tmp/pbs.5076255.sched01/tmpa1vw3d_c/4207j0axjo.sdf

>  <i_m_source_file_index>  (113) 
30

>  <i_lp_mmshare_version>  (113) 
48012

>  <i_f3d_flags>  (113) 
0

>  <s_epik_input>  (113) 
W0NIM11DMShbQ0gzXSlbQ0gyXVtDQEBIXShbQ0gzXSljKFtjSF1bY0hdW2NIXVtjSF0yKWMyW0NAQF0xM1tDQEBIXTRbQ0gyXUMoPU8pW0NASF0zW0NIMl00

>  <s_epik_cmdline>  (113) 
J2VwaWtfcHl0aG9uJywgJy1waHQnLCAnMi4wJywgJy1waCcsICc3LjAnLCAnLXRuJywgJzgnLCAnLW1hJywgJzIwMCcsICctaW1hZScsICc8aW5maWxlLm1hZT4nLCAnLW9tYWUnLCAnPG91dGZpbGUubWFlPic=

>  <r_lp_tautomer_probability>  (113) 
1

>  <r_epik_Ionization_Penalty>  (113) 
2.1273e-13

>  <r_epik_Ionization_Penalty_Charging>  (113) 
0

>  <r_epik_Ionization_Penalty_Neutral>  (113) 
2.1273e-13

>  <r_epik_State_Penalty>  (113) 
-0

>  <r_epik_Charging_Adjusted_Penalty>  (113) 
0

>  <i_epik_Tot_Q>  (113) 
0

>  <i_epik_Tot_abs_Q>  (113) 
0

>  <s_lp_Force_Field>  (113) 
OPLS3e

>  <r_lp_Energy>  (113) 
70.8575

>  <b_lp_Chiralities_Consistent>  (113) 
1

>  <s_lp_Variant>  (113) 
39:0-1

>  <s_i_glide_gridfile>  (113) 
pfpi4k_grid

>  <i_i_glide_lignum>  (113) 
30

>  <i_i_glide_rotatable_bonds>  (113) 
0

>  <r_i_docking_score>  (113) 
-2.62808

>  <r_i_glide_ligand_efficiency>  (113) 
-0.13832

>  <r_i_glide_ligand_efficiency_sa>  (113) 
-0.369093

>  <r_i_glide_ligand_efficiency_ln>  (113) 
-0.666275

>  <r_i_glide_gscore>  (113) 
-2.62808

>  <r_i_glide_lipo>  (113) 
-0.388773

>  <r_i_glide_hbond>  (113) 
0

>  <r_i_glide_metal>  (113) 
-0

>  <r_i_glide_rewards>  (113) 
-1.72103

>  <r_i_glide_evdw>  (113) 
-12.7178

>  <r_i_glide_ecoul>  (113) 
0.784034

>  <r_i_glide_erotb>  (113) 
0

>  <r_i_glide_esite>  (113) 
0

>  <r_i_glide_emodel>  (113) 
-11.2941

>  <r_i_glide_energy>  (113) 
-11.9337

>  <r_i_glide_einternal>  (113) 
0

>  <r_i_glide_intrahb_reward>  (113) 
-0

>  <i_i_glide_confnum>  (113) 
2

>  <i_i_glide_posenum>  (113) 
25

>  <r_i_glide_eff_state_penalty>  (113) 
0

>  <ligand_id>  (113) 
39

>  <original_smiles>  (113) 
CC1CC(C)(C)C2(c3ccccc31)C1CC(=O)C2C1

>  <smiles>  (113) 
[H]c1c([H])c([H])c2c(c1[H])C([H])(C([H])([H])[H])C([H])([H])C(C([H])([H])[H])(C([H])([H])[H])C21C2([H])C(=O)C([H])([H])C1([H])C2([H])[H]

$$$$
39:0:1
     RDKit          3D

 41 44  0  0  1  0  0  0  0  0999 V2000
    5.0536   -1.4312   -0.5810 C   0  0  0  0  0  0  0  0  0  0  0  0
    3.8531   -1.2895    0.3575 C   0  0  2  0  0  0  0  0  0  0  0  0
    4.1582   -0.2803    1.4647 C   0  0  0  0  0  0  0  0  0  0  0  0
    3.0922   -0.2594    2.5627 C   0  0  0  0  0  0  0  0  0  0  0  0
    3.4090    0.9050    3.5037 C   0  0  0  0  0  0  0  0  0  0  0  0
    1.7274    0.0750    1.9844 C   0  0  0  0  0  0  0  0  0  0  0  0
    3.0870   -1.6602    3.3105 C   0  0  1  0  0  0  0  0  0  0  0  0
    2.9827   -2.8094    2.2423 C   0  0  0  0  0  0  0  0  0  0  0  0
    2.5575   -4.1169    2.5885 C   0  0  0  0  0  0  0  0  0  0  0  0
    2.6003   -5.2395    1.7369 C   0  0  0  0  0  0  0  0  0  0  0  0
    2.9958   -5.0340    0.4529 C   0  0  0  0  0  0  0  0  0  0  0  0
    3.3776   -3.7497    0.0137 C   0  0  0  0  0  0  0  0  0  0  0  0
    3.4008   -2.6473    0.8982 C   0  0  0  0  0  0  0  0  0  0  0  0
    4.2636   -1.9359    4.2964 C   0  0  2  0  0  0  0  0  0  0  0  0
    4.1305   -3.2858    4.9503 C   0  0  0  0  0  0  0  0  0  0  0  0
    2.6460   -3.1101    5.3055 C   0  0  0  0  0  0  0  0  0  0  0  0
    1.8982   -3.9082    5.8315 O   0  0  0  0  0  0  0  0  0  0  0  0
    2.3620   -1.7667    4.7278 C   0  0  1  0  0  0  0  0  0  0  0  0
    3.5726   -1.0934    5.3691 C   0  0  0  0  0  0  0  0  0  0  0  0
    4.8098   -2.0384   -1.4469 H   0  0  0  0  0  0  0  0  0  0  0  0
    5.8895   -1.8918   -0.0554 H   0  0  0  0  0  0  0  0  0  0  0  0
    5.3536   -0.4595   -0.9573 H   0  0  0  0  0  0  0  0  0  0  0  0
    3.0204   -0.9061   -0.2302 H   0  0  0  0  0  0  0  0  0  0  0  0
    5.1317   -0.5102    1.9014 H   0  0  0  0  0  0  0  0  0  0  0  0
    4.2611    0.7220    1.0339 H   0  0  0  0  0  0  0  0  0  0  0  0
    2.6097    0.9594    4.2309 H   0  0  0  0  0  0  0  0  0  0  0  0
    3.4133    1.9243    3.0692 H   0  0  0  0  0  0  0  0  0  0  0  0
    4.4010    0.7912    3.9067 H   0  0  0  0  0  0  0  0  0  0  0  0
    0.9764    0.1851    2.7676 H   0  0  0  0  0  0  0  0  0  0  0  0
    1.3813   -0.6823    1.2855 H   0  0  0  0  0  0  0  0  0  0  0  0
    1.7862    1.0245    1.4417 H   0  0  0  0  0  0  0  0  0  0  0  0
    2.2219   -4.4598    3.5229 H   0  0  0  0  0  0  0  0  0  0  0  0
    2.2997   -6.1857    2.1511 H   0  0  0  0  0  0  0  0  0  0  0  0
    2.9918   -5.8756   -0.2337 H   0  0  0  0  0  0  0  0  0  0  0  0
    3.6534   -3.6554   -1.0169 H   0  0  0  0  0  0  0  0  0  0  0  0
    5.2253   -1.6241    3.8897 H   0  0  0  0  0  0  0  0  0  0  0  0
    4.3737   -4.1156    4.2614 H   0  0  0  0  0  0  0  0  0  0  0  0
    4.7752   -3.3332    5.8222 H   0  0  0  0  0  0  0  0  0  0  0  0
    1.3668   -1.3816    4.8206 H   0  0  0  0  0  0  0  0  0  0  0  0
    3.8236   -1.3393    6.3855 H   0  0  0  0  0  0  0  0  0  0  0  0
    3.6642   -0.0247    5.5252 H   0  0  0  0  0  0  0  0  0  0  0  0
  1  2  1  0
  1 20  1  0
  1 21  1  0
  1 22  1  0
  2 13  1  0
  2  3  1  0
  2 23  1  6
  3  4  1  0
  3 24  1  0
  3 25  1  0
  4  5  1  0
  4  6  1  0
  7  4  1  6
  5 26  1  0
  5 27  1  0
  5 28  1  0
  6 29  1  0
  6 30  1  0
  6 31  1  0
  7 18  1  0
  7  8  1  0
  7 14  1  0
  8 13  2  0
  8  9  1  0
  9 10  2  0
  9 32  1  0
 10 11  1  0
 10 33  1  0
 11 12  2  0
 11 34  1  0
 12 13  1  0
 12 35  1  0
 14 19  1  0
 14 15  1  0
 14 36  1  6
 15 16  1  0
 15 37  1  0
 15 38  1  0
 16 17  2  0
 16 18  1  0
 18 19  1  0
 18 39  1  6
 19 40  1  0
 19 41  1  0
M  END
>  <i_m_ct_stereo_status>  (114) 
1

>  <s_m_source_file>  (114) 
/var/tmp/pbs.5076255.sched01/tmpa1vw3d_c/4207j0axjo.sdf

>  <i_m_source_file_index>  (114) 
30

>  <i_lp_mmshare_version>  (114) 
48012

>  <i_f3d_flags>  (114) 
0

>  <s_epik_input>  (114) 
W0NIM11DMShbQ0gzXSlbQ0gyXVtDQEBIXShbQ0gzXSljKFtjSF1bY0hdW2NIXVtjSF0yKWMyW0NAQF0xM1tDQEBIXTRbQ0gyXUMoPU8pW0NASF0zW0NIMl00

>  <s_epik_cmdline>  (114) 
J2VwaWtfcHl0aG9uJywgJy1waHQnLCAnMi4wJywgJy1waCcsICc3LjAnLCAnLXRuJywgJzgnLCAnLW1hJywgJzIwMCcsICctaW1hZScsICc8aW5maWxlLm1hZT4nLCAnLW9tYWUnLCAnPG91dGZpbGUubWFlPic=

>  <r_lp_tautomer_probability>  (114) 
1

>  <r_epik_Ionization_Penalty>  (114) 
2.1273e-13

>  <r_epik_Ionization_Penalty_Charging>  (114) 
0

>  <r_epik_Ionization_Penalty_Neutral>  (114) 
2.1273e-13

>  <r_epik_State_Penalty>  (114) 
-0

>  <r_epik_Charging_Adjusted_Penalty>  (114) 
0

>  <i_epik_Tot_Q>  (114) 
0

>  <i_epik_Tot_abs_Q>  (114) 
0

>  <s_lp_Force_Field>  (114) 
OPLS3e

>  <r_lp_Energy>  (114) 
70.8575

>  <b_lp_Chiralities_Consistent>  (114) 
1

>  <s_lp_Variant>  (114) 
39:0-1

>  <s_i_glide_gridfile>  (114) 
pfpi4k_grid

>  <i_i_glide_lignum>  (114) 
30

>  <i_i_glide_rotatable_bonds>  (114) 
0

>  <r_i_docking_score>  (114) 
-2.12382

>  <r_i_glide_ligand_efficiency>  (114) 
-0.11178

>  <r_i_glide_ligand_efficiency_sa>  (114) 
-0.298274

>  <r_i_glide_ligand_efficiency_ln>  (114) 
-0.538433

>  <r_i_glide_gscore>  (114) 
-2.12382

>  <r_i_glide_lipo>  (114) 
-0.104414

>  <r_i_glide_hbond>  (114) 
0

>  <r_i_glide_metal>  (114) 
-0

>  <r_i_glide_rewards>  (114) 
-1.67477

>  <r_i_glide_evdw>  (114) 
-16.9454

>  <r_i_glide_ecoul>  (114) 
-0.597234

>  <r_i_glide_erotb>  (114) 
0

>  <r_i_glide_esite>  (114) 
0

>  <r_i_glide_emodel>  (114) 
-14.4303

>  <r_i_glide_energy>  (114) 
-17.5426

>  <r_i_glide_einternal>  (114) 
0

>  <r_i_glide_intrahb_reward>  (114) 
-0

>  <i_i_glide_confnum>  (114) 
2

>  <i_i_glide_posenum>  (114) 
1

>  <r_i_glide_eff_state_penalty>  (114) 
0

>  <ligand_id>  (114) 
39

>  <original_smiles>  (114) 
CC1CC(C)(C)C2(c3ccccc31)C1CC(=O)C2C1

>  <smiles>  (114) 
[H]c1c([H])c([H])c2c(c1[H])C([H])(C([H])([H])[H])C([H])([H])C(C([H])([H])[H])(C([H])([H])[H])C21C2([H])C(=O)C([H])([H])C1([H])C2([H])[H]

$$$$
39:0:2
     RDKit          3D

 41 44  0  0  1  0  0  0  0  0999 V2000
    4.6883   -3.7795   -0.3345 C   0  0  0  0  0  0  0  0  0  0  0  0
    3.6344   -3.1105    0.5426 C   0  0  2  0  0  0  0  0  0  0  0  0
    4.2778   -2.0441    1.4389 C   0  0  0  0  0  0  0  0  0  0  0  0
    3.3176   -1.5133    2.4929 C   0  0  0  0  0  0  0  0  0  0  0  0
    4.0162   -0.3216    3.1827 C   0  0  0  0  0  0  0  0  0  0  0  0
    2.0966   -0.8954    1.8487 C   0  0  0  0  0  0  0  0  0  0  0  0
    2.9314   -2.6472    3.4923 C   0  0  1  0  0  0  0  0  0  0  0  0
    2.4430   -3.9230    2.6926 C   0  0  0  0  0  0  0  0  0  0  0  0
    1.6759   -4.9470    3.2687 C   0  0  0  0  0  0  0  0  0  0  0  0
    1.3410   -6.1422    2.6775 C   0  0  0  0  0  0  0  0  0  0  0  0
    1.7125   -6.3346    1.3628 C   0  0  0  0  0  0  0  0  0  0  0  0
    2.4421   -5.3376    0.6861 C   0  0  0  0  0  0  0  0  0  0  0  0
    2.8311   -4.1416    1.3363 C   0  0  0  0  0  0  0  0  0  0  0  0
    4.0119   -3.0720    4.5294 C   0  0  2  0  0  0  0  0  0  0  0  0
    3.5561   -4.1871    5.4297 C   0  0  0  0  0  0  0  0  0  0  0  0
    2.1604   -3.4880    5.7412 C   0  0  0  0  0  0  0  0  0  0  0  0
    1.2597   -3.9287    6.3867 O   0  0  0  0  0  0  0  0  0  0  0  0
    2.3065   -2.2904    4.8864 C   0  0  1  0  0  0  0  0  0  0  0  0
    3.6618   -1.8838    5.4051 C   0  0  0  0  0  0  0  0  0  0  0  0
    4.2358   -4.4467   -1.0642 H   0  0  0  0  0  0  0  0  0  0  0  0
    5.3793   -4.3602    0.2808 H   0  0  0  0  0  0  0  0  0  0  0  0
    5.2470   -3.0386   -0.8948 H   0  0  0  0  0  0  0  0  0  0  0  0
    2.9214   -2.6149   -0.1202 H   0  0  0  0  0  0  0  0  0  0  0  0
    5.1599   -2.4701    1.9162 H   0  0  0  0  0  0  0  0  0  0  0  0
    4.6567   -1.2194    0.8170 H   0  0  0  0  0  0  0  0  0  0  0  0
    3.2938    0.0943    3.8998 H   0  0  0  0  0  0  0  0  0  0  0  0
    4.2979    0.5274    2.5811 H   0  0  0  0  0  0  0  0  0  0  0  0
    4.9496   -0.6609    3.6342 H   0  0  0  0  0  0  0  0  0  0  0  0
    1.4428   -0.4128    2.5783 H   0  0  0  0  0  0  0  0  0  0  0  0
    1.4986   -1.6311    1.3005 H   0  0  0  0  0  0  0  0  0  0  0  0
    2.3969   -0.1256    1.1209 H   0  0  0  0  0  0  0  0  0  0  0  0
    1.3048   -4.9648    4.2643 H   0  0  0  0  0  0  0  0  0  0  0  0
    0.7920   -6.8808    3.2509 H   0  0  0  0  0  0  0  0  0  0  0  0
    1.4223   -7.2593    0.8612 H   0  0  0  0  0  0  0  0  0  0  0  0
    2.6900   -5.5263   -0.3333 H   0  0  0  0  0  0  0  0  0  0  0  0
    5.0235   -3.1593    4.0791 H   0  0  0  0  0  0  0  0  0  0  0  0
    3.4832   -5.1598    4.9345 H   0  0  0  0  0  0  0  0  0  0  0  0
    4.1667   -4.2465    6.3099 H   0  0  0  0  0  0  0  0  0  0  0  0
    1.4360   -1.5874    4.9086 H   0  0  0  0  0  0  0  0  0  0  0  0
    3.8814   -1.9802    6.4449 H   0  0  0  0  0  0  0  0  0  0  0  0
    4.0815   -0.8842    5.3361 H   0  0  0  0  0  0  0  0  0  0  0  0
  1  2  1  0
  1 20  1  0
  1 21  1  0
  1 22  1  0
  2 13  1  0
  2  3  1  0
  2 23  1  6
  3  4  1  0
  3 24  1  0
  3 25  1  0
  4  5  1  0
  4  6  1  0
  7  4  1  6
  5 26  1  0
  5 27  1  0
  5 28  1  0
  6 29  1  0
  6 30  1  0
  6 31  1  0
  7 18  1  0
  7  8  1  0
  7 14  1  0
  8 13  2  0
  8  9  1  0
  9 10  2  0
  9 32  1  0
 10 11  1  0
 10 33  1  0
 11 12  2  0
 11 34  1  0
 12 13  1  0
 12 35  1  0
 14 19  1  0
 14 15  1  0
 14 36  1  6
 15 16  1  0
 15 37  1  0
 15 38  1  0
 16 17  2  0
 16 18  1  0
 18 19  1  0
 18 39  1  6
 19 40  1  0
 19 41  1  0
M  END
>  <i_m_ct_stereo_status>  (115) 
1

>  <s_m_source_file>  (115) 
/var/tmp/pbs.5076255.sched01/tmpa1vw3d_c/4207j0axjo.sdf

>  <i_m_source_file_index>  (115) 
30

>  <i_lp_mmshare_version>  (115) 
48012

>  <i_f3d_flags>  (115) 
0

>  <s_epik_input>  (115) 
W0NIM11DMShbQ0gzXSlbQ0gyXVtDQEBIXShbQ0gzXSljKFtjSF1bY0hdW2NIXVtjSF0yKWMyW0NAQF0xM1tDQEBIXTRbQ0gyXUMoPU8pW0NASF0zW0NIMl00

>  <s_epik_cmdline>  (115) 
J2VwaWtfcHl0aG9uJywgJy1waHQnLCAnMi4wJywgJy1waCcsICc3LjAnLCAnLXRuJywgJzgnLCAnLW1hJywgJzIwMCcsICctaW1hZScsICc8aW5maWxlLm1hZT4nLCAnLW9tYWUnLCAnPG91dGZpbGUubWFlPic=

>  <r_lp_tautomer_probability>  (115) 
1

>  <r_epik_Ionization_Penalty>  (115) 
2.1273e-13

>  <r_epik_Ionization_Penalty_Charging>  (115) 
0

>  <r_epik_Ionization_Penalty_Neutral>  (115) 
2.1273e-13

>  <r_epik_State_Penalty>  (115) 
-0

>  <r_epik_Charging_Adjusted_Penalty>  (115) 
0

>  <i_epik_Tot_Q>  (115) 
0

>  <i_epik_Tot_abs_Q>  (115) 
0

>  <s_lp_Force_Field>  (115) 
OPLS3e

>  <r_lp_Energy>  (115) 
70.8575

>  <b_lp_Chiralities_Consistent>  (115) 
1

>  <s_lp_Variant>  (115) 
39:0-1

>  <s_i_glide_gridfile>  (115) 
pfpi4k_grid

>  <i_i_glide_lignum>  (115) 
30

>  <i_i_glide_rotatable_bonds>  (115) 
0

>  <r_i_docking_score>  (115) 
-1.92166

>  <r_i_glide_ligand_efficiency>  (115) 
-0.10114

>  <r_i_glide_ligand_efficiency_sa>  (115) 
-0.269882

>  <r_i_glide_ligand_efficiency_ln>  (115) 
-0.487181

>  <r_i_glide_gscore>  (115) 
-1.92166

>  <r_i_glide_lipo>  (115) 
-0.0629761

>  <r_i_glide_hbond>  (115) 
0

>  <r_i_glide_metal>  (115) 
-0

>  <r_i_glide_rewards>  (115) 
-1.67477

>  <r_i_glide_evdw>  (115) 
-14.7626

>  <r_i_glide_ecoul>  (115) 
-1.10394

>  <r_i_glide_erotb>  (115) 
0

>  <r_i_glide_esite>  (115) 
0

>  <r_i_glide_emodel>  (115) 
-12.1544

>  <r_i_glide_energy>  (115) 
-15.8665

>  <r_i_glide_einternal>  (115) 
0

>  <r_i_glide_intrahb_reward>  (115) 
-0

>  <i_i_glide_confnum>  (115) 
1

>  <i_i_glide_posenum>  (115) 
8

>  <r_i_glide_eff_state_penalty>  (115) 
0

>  <ligand_id>  (115) 
39

>  <original_smiles>  (115) 
CC1CC(C)(C)C2(c3ccccc31)C1CC(=O)C2C1

>  <smiles>  (115) 
[H]c1c([H])c([H])c2c(c1[H])C([H])(C([H])([H])[H])C([H])([H])C(C([H])([H])[H])(C([H])([H])[H])C21C2([H])C(=O)C([H])([H])C1([H])C2([H])[H]

$$$$
40:0:0
     RDKit          3D

 38 41  0  0  1  0  0  0  0  0999 V2000
    7.9537   -3.2125   -0.7261 C   0  0  0  0  0  0  0  0  0  0  0  0
    6.4081   -3.1341   -0.7061 C   0  0  2  0  0  0  0  0  0  0  0  0
    5.8561   -2.4202   -1.9602 C   0  0  1  0  0  0  0  0  0  0  0  0
    6.1867   -3.1953   -3.0953 O   0  0  0  0  0  0  0  0  0  0  0  0
    4.3360   -2.1245   -1.9280 C   0  0  1  0  0  0  0  0  0  0  0  0
    3.7595   -1.7521   -3.3087 C   0  0  0  0  0  0  0  0  0  0  0  0
    3.5191   -3.3078   -1.2982 C   0  0  0  0  0  0  0  0  0  0  0  0
    3.7065   -3.4694    0.1201 O   0  0  0  0  0  0  0  0  0  0  0  0
    4.3395   -2.3751    0.6956 C   0  0  1  0  0  0  0  0  0  0  0  0
    4.0258   -2.1440    2.0172 O   0  0  0  0  0  0  0  0  0  0  0  0
    4.3512   -0.7937    2.1882 C   0  0  1  0  0  0  0  0  0  0  0  0
    3.5596   -0.1988    3.3580 C   0  0  0  0  0  0  0  0  0  0  0  0
    5.8705   -0.7218    2.3862 C   0  0  0  0  0  0  0  0  0  0  0  0
    6.5537   -1.2217    1.0930 C   0  0  0  0  0  0  0  0  0  0  0  0
    5.9008   -2.5417    0.6380 C   0  0  2  0  0  0  0  0  0  0  0  0
    4.0446   -0.1079    1.0214 O   0  0  0  0  0  0  0  0  0  0  0  0
    3.7455   -1.0928    0.0980 C   0  0  1  0  0  0  0  0  0  0  0  0
    4.2525   -0.9086   -1.1774 O   0  0  0  0  0  0  0  0  0  0  0  0
    8.4190   -2.2265   -0.7710 H   0  0  0  0  0  0  0  0  0  0  0  0
    8.3248   -3.7734   -1.5849 H   0  0  0  0  0  0  0  0  0  0  0  0
    8.3245   -3.7068    0.1721 H   0  0  0  0  0  0  0  0  0  0  0  0
    6.0471   -4.1652   -0.7452 H   0  0  0  0  0  0  0  0  0  0  0  0
    6.3570   -1.4584   -2.0698 H   0  0  0  0  0  0  0  0  0  0  0  0
    7.1121   -3.1057   -3.2960 H   0  0  0  0  0  0  0  0  0  0  0  0
    3.7503   -2.6088   -3.9806 H   0  0  0  0  0  0  0  0  0  0  0  0
    4.3256   -0.9505   -3.7800 H   0  0  0  0  0  0  0  0  0  0  0  0
    2.7303   -1.4137   -3.2014 H   0  0  0  0  0  0  0  0  0  0  0  0
    2.4534   -3.1646   -1.4771 H   0  0  0  0  0  0  0  0  0  0  0  0
    3.7918   -4.2426   -1.7840 H   0  0  0  0  0  0  0  0  0  0  0  0
    2.4883   -0.2725    3.1677 H   0  0  0  0  0  0  0  0  0  0  0  0
    3.8234    0.8530    3.4755 H   0  0  0  0  0  0  0  0  0  0  0  0
    3.8025   -0.7309    4.2755 H   0  0  0  0  0  0  0  0  0  0  0  0
    6.1574    0.2975    2.6136 H   0  0  0  0  0  0  0  0  0  0  0  0
    6.1307   -1.3347    3.2450 H   0  0  0  0  0  0  0  0  0  0  0  0
    6.4773   -0.4659    0.3072 H   0  0  0  0  0  0  0  0  0  0  0  0
    7.6195   -1.3737    1.2740 H   0  0  0  0  0  0  0  0  0  0  0  0
    6.1407   -3.2936    1.3911 H   0  0  0  0  0  0  0  0  0  0  0  0
    2.6571   -1.1491    0.0654 H   0  0  0  0  0  0  0  0  0  0  0  0
  1  2  1  0
  1 19  1  0
  1 20  1  0
  1 21  1  0
  2 15  1  0
  2  3  1  0
  2 22  1  6
  3  4  1  0
  3  5  1  0
  3 23  1  6
  4 24  1  0
  5 18  1  0
  5  6  1  6
  5  7  1  0
  6 25  1  0
  6 26  1  0
  6 27  1  0
  7  8  1  0
  7 28  1  0
  7 29  1  0
  9  8  1  6
  9 15  1  0
  9 17  1  0
  9 10  1  0
 10 11  1  0
 11 12  1  1
 11 13  1  0
 11 16  1  0
 12 30  1  0
 12 31  1  0
 12 32  1  0
 13 14  1  0
 13 33  1  0
 13 34  1  0
 14 15  1  0
 14 35  1  0
 14 36  1  0
 15 37  1  1
 16 17  1  0
 17 18  1  0
 17 38  1  6
M  END
>  <i_m_ct_stereo_status>  (116) 
1

>  <s_m_source_file>  (116) 
/var/tmp/pbs.5076255.sched01/tmpa1vw3d_c/4207j0axjo.sdf

>  <i_m_source_file_index>  (116) 
31

>  <i_lp_mmshare_version>  (116) 
48012

>  <i_f3d_flags>  (116) 
0

>  <s_epik_input>  (116) 
W0NAXTEyM1tDQEhdNFtDQEhdKFtDSDNdKVtDQEBIXShbT0hdKVtDQEBdKFtDSDNdKShbQ0gyXU8xKU9bQ0BASF0zT1tDQF0oTzIpKFtDSDNdKVtDSDJdW0NIMl00

>  <s_epik_cmdline>  (116) 
J2VwaWtfcHl0aG9uJywgJy1waHQnLCAnMi4wJywgJy1waCcsICc3LjAnLCAnLXRuJywgJzgnLCAnLW1hJywgJzIwMCcsICctaW1hZScsICc8aW5maWxlLm1hZT4nLCAnLW9tYWUnLCAnPG91dGZpbGUubWFlPic=

>  <r_lp_tautomer_probability>  (116) 
1

>  <r_epik_Ionization_Penalty>  (116) 
1.06639e-07

>  <r_epik_Ionization_Penalty_Charging>  (116) 
0

>  <r_epik_Ionization_Penalty_Neutral>  (116) 
1.06639e-07

>  <r_epik_State_Penalty>  (116) 
-0

>  <r_epik_Charging_Adjusted_Penalty>  (116) 
0

>  <i_epik_Tot_Q>  (116) 
0

>  <i_epik_Tot_abs_Q>  (116) 
0

>  <s_epik_Chemistry_Notes>  (116) 
This compound contains an acetal/aminal-like group ( X-CH(R)-Y where X, Y are N, S, or O) that may be acid/base labile, releasing an aldehyde.

>  <s_lp_Force_Field>  (116) 
OPLS3e

>  <r_lp_Energy>  (116) 
41.7123

>  <b_lp_Chiralities_Consistent>  (116) 
1

>  <s_lp_Variant>  (116) 
40:0-1

>  <s_i_glide_gridfile>  (116) 
pfpi4k_grid

>  <i_i_glide_lignum>  (116) 
31

>  <i_i_glide_rotatable_bonds>  (116) 
1

>  <r_i_docking_score>  (116) 
-4.18238

>  <r_i_glide_ligand_efficiency>  (116) 
-0.232355

>  <r_i_glide_ligand_efficiency_sa>  (116) 
-0.608941

>  <r_i_glide_ligand_efficiency_ln>  (116) 
-1.07506

>  <r_i_glide_gscore>  (116) 
-4.18238

>  <r_i_glide_lipo>  (116) 
-0.550165

>  <r_i_glide_hbond>  (116) 
-0.32

>  <r_i_glide_metal>  (116) 
-0

>  <r_i_glide_rewards>  (116) 
-1.74292

>  <r_i_glide_evdw>  (116) 
-20.9976

>  <r_i_glide_ecoul>  (116) 
-3.12296

>  <r_i_glide_erotb>  (116) 
0

>  <r_i_glide_esite>  (116) 
-0.0509758

>  <r_i_glide_emodel>  (116) 
-30.1194

>  <r_i_glide_energy>  (116) 
-24.1205

>  <r_i_glide_einternal>  (116) 
0.516637

>  <r_i_glide_intrahb_reward>  (116) 
-0

>  <i_i_glide_confnum>  (116) 
1

>  <i_i_glide_posenum>  (116) 
30

>  <r_i_glide_eff_state_penalty>  (116) 
0

>  <ligand_id>  (116) 
40

>  <original_smiles>  (116) 
CC1C(O)C2(C)COC34OC(C)(CCC13)OC4O2

>  <smiles>  (116) 
[H]OC1([H])C([H])(C([H])([H])[H])C2([H])C([H])([H])C([H])([H])C3(C([H])([H])[H])OC4([H])OC1(C([H])([H])[H])C([H])([H])OC42O3

$$$$
40:0:1
     RDKit          3D

 38 41  0  0  1  0  0  0  0  0999 V2000
    5.2671   -0.3190    1.1784 C   0  0  0  0  0  0  0  0  0  0  0  0
    5.1198   -1.6623    0.4436 C   0  0  2  0  0  0  0  0  0  0  0  0
    4.2300   -1.5242   -0.8205 C   0  0  1  0  0  0  0  0  0  0  0  0
    4.9064   -0.6618   -1.7294 O   0  0  0  0  0  0  0  0  0  0  0  0
    3.8907   -2.8851   -1.4876 C   0  0  1  0  0  0  0  0  0  0  0  0
    3.3287   -2.7336   -2.9125 C   0  0  0  0  0  0  0  0  0  0  0  0
    5.1205   -3.8631   -1.4976 C   0  0  0  0  0  0  0  0  0  0  0  0
    5.4690   -4.3913   -0.2051 O   0  0  0  0  0  0  0  0  0  0  0  0
    4.4753   -4.1671    0.7503 C   0  0  1  0  0  0  0  0  0  0  0  0
    4.4083   -5.0936    1.7676 O   0  0  0  0  0  0  0  0  0  0  0  0
    3.1002   -4.9411    2.2500 C   0  0  1  0  0  0  0  0  0  0  0  0
    2.6387   -6.2278    2.9441 C   0  0  0  0  0  0  0  0  0  0  0  0
    3.0940   -3.7092    3.1758 C   0  0  0  0  0  0  0  0  0  0  0  0
    3.4830   -2.4703    2.3532 C   0  0  0  0  0  0  0  0  0  0  0  0
    4.6908   -2.7801    1.4394 C   0  0  2  0  0  0  0  0  0  0  0  0
    2.2610   -4.6753    1.1704 O   0  0  0  0  0  0  0  0  0  0  0  0
    3.1130   -4.4462    0.1021 C   0  0  1  0  0  0  0  0  0  0  0  0
    2.7781   -3.3929   -0.7306 O   0  0  0  0  0  0  0  0  0  0  0  0
    4.2955    0.0767    1.4874 H   0  0  0  0  0  0  0  0  0  0  0  0
    5.7421    0.4331    0.5470 H   0  0  0  0  0  0  0  0  0  0  0  0
    5.8836   -0.4271    2.0728 H   0  0  0  0  0  0  0  0  0  0  0  0
    6.1222   -1.9322    0.1002 H   0  0  0  0  0  0  0  0  0  0  0  0
    3.2856   -1.0423   -0.5595 H   0  0  0  0  0  0  0  0  0  0  0  0
    4.8965    0.2237   -1.3761 H   0  0  0  0  0  0  0  0  0  0  0  0
    4.0927   -2.3848   -3.6087 H   0  0  0  0  0  0  0  0  0  0  0  0
    2.4899   -2.0355   -2.9408 H   0  0  0  0  0  0  0  0  0  0  0  0
    2.9693   -3.6943   -3.2802 H   0  0  0  0  0  0  0  0  0  0  0  0
    4.9175   -4.7098   -2.1497 H   0  0  0  0  0  0  0  0  0  0  0  0
    5.9970   -3.3784   -1.9265 H   0  0  0  0  0  0  0  0  0  0  0  0
    2.6481   -7.0670    2.2462 H   0  0  0  0  0  0  0  0  0  0  0  0
    1.6219   -6.0938    3.3164 H   0  0  0  0  0  0  0  0  0  0  0  0
    3.2944   -6.4528    3.7861 H   0  0  0  0  0  0  0  0  0  0  0  0
    2.1063   -3.5810    3.6158 H   0  0  0  0  0  0  0  0  0  0  0  0
    3.8061   -3.8861    3.9814 H   0  0  0  0  0  0  0  0  0  0  0  0
    2.6391   -2.1312    1.7519 H   0  0  0  0  0  0  0  0  0  0  0  0
    3.7318   -1.6609    3.0368 H   0  0  0  0  0  0  0  0  0  0  0  0
    5.5497   -2.9211    2.0969 H   0  0  0  0  0  0  0  0  0  0  0  0
    3.1395   -5.3770   -0.4605 H   0  0  0  0  0  0  0  0  0  0  0  0
  1  2  1  0
  1 19  1  0
  1 20  1  0
  1 21  1  0
  2 15  1  0
  2  3  1  0
  2 22  1  6
  3  4  1  0
  3  5  1  0
  3 23  1  1
  4 24  1  0
  5 18  1  0
  5  6  1  6
  5  7  1  0
  6 25  1  0
  6 26  1  0
  6 27  1  0
  7  8  1  0
  7 28  1  0
  7 29  1  0
  9  8  1  6
  9 15  1  0
  9 17  1  0
  9 10  1  0
 10 11  1  0
 11 12  1  1
 11 13  1  0
 11 16  1  0
 12 30  1  0
 12 31  1  0
 12 32  1  0
 13 14  1  0
 13 33  1  0
 13 34  1  0
 14 15  1  0
 14 35  1  0
 14 36  1  0
 15 37  1  1
 16 17  1  0
 17 18  1  0
 17 38  1  6
M  END
>  <i_m_ct_stereo_status>  (117) 
1

>  <s_m_source_file>  (117) 
/var/tmp/pbs.5076255.sched01/tmpa1vw3d_c/4207j0axjo.sdf

>  <i_m_source_file_index>  (117) 
31

>  <i_lp_mmshare_version>  (117) 
48012

>  <i_f3d_flags>  (117) 
0

>  <s_epik_input>  (117) 
W0NAXTEyM1tDQEhdNFtDQEhdKFtDSDNdKVtDQEBIXShbT0hdKVtDQEBdKFtDSDNdKShbQ0gyXU8xKU9bQ0BASF0zT1tDQF0oTzIpKFtDSDNdKVtDSDJdW0NIMl00

>  <s_epik_cmdline>  (117) 
J2VwaWtfcHl0aG9uJywgJy1waHQnLCAnMi4wJywgJy1waCcsICc3LjAnLCAnLXRuJywgJzgnLCAnLW1hJywgJzIwMCcsICctaW1hZScsICc8aW5maWxlLm1hZT4nLCAnLW9tYWUnLCAnPG91dGZpbGUubWFlPic=

>  <r_lp_tautomer_probability>  (117) 
1

>  <r_epik_Ionization_Penalty>  (117) 
1.06639e-07

>  <r_epik_Ionization_Penalty_Charging>  (117) 
0

>  <r_epik_Ionization_Penalty_Neutral>  (117) 
1.06639e-07

>  <r_epik_State_Penalty>  (117) 
-0

>  <r_epik_Charging_Adjusted_Penalty>  (117) 
0

>  <i_epik_Tot_Q>  (117) 
0

>  <i_epik_Tot_abs_Q>  (117) 
0

>  <s_epik_Chemistry_Notes>  (117) 
This compound contains an acetal/aminal-like group ( X-CH(R)-Y where X, Y are N, S, or O) that may be acid/base labile, releasing an aldehyde.

>  <s_lp_Force_Field>  (117) 
OPLS3e

>  <r_lp_Energy>  (117) 
41.7123

>  <b_lp_Chiralities_Consistent>  (117) 
1

>  <s_lp_Variant>  (117) 
40:0-1

>  <s_i_glide_gridfile>  (117) 
pfpi4k_grid

>  <i_i_glide_lignum>  (117) 
31

>  <i_i_glide_rotatable_bonds>  (117) 
1

>  <r_i_docking_score>  (117) 
-3.89381

>  <r_i_glide_ligand_efficiency>  (117) 
-0.216323

>  <r_i_glide_ligand_efficiency_sa>  (117) 
-0.566926

>  <r_i_glide_ligand_efficiency_ln>  (117) 
-1.00088

>  <r_i_glide_gscore>  (117) 
-3.89381

>  <r_i_glide_lipo>  (117) 
-0.230749

>  <r_i_glide_hbond>  (117) 
-0.326841

>  <r_i_glide_metal>  (117) 
-0

>  <r_i_glide_rewards>  (117) 
-1.7028

>  <r_i_glide_evdw>  (117) 
-19.9106

>  <r_i_glide_ecoul>  (117) 
-4.08643

>  <r_i_glide_erotb>  (117) 
0

>  <r_i_glide_esite>  (117) 
-0.0249264

>  <r_i_glide_emodel>  (117) 
-29.6836

>  <r_i_glide_energy>  (117) 
-23.997

>  <r_i_glide_einternal>  (117) 
0.379579

>  <r_i_glide_intrahb_reward>  (117) 
-0

>  <i_i_glide_confnum>  (117) 
1

>  <i_i_glide_posenum>  (117) 
1

>  <r_i_glide_eff_state_penalty>  (117) 
0

>  <ligand_id>  (117) 
40

>  <original_smiles>  (117) 
CC1C(O)C2(C)COC34OC(C)(CCC13)OC4O2

>  <smiles>  (117) 
[H]OC1([H])C([H])(C([H])([H])[H])C2([H])C([H])([H])C([H])([H])C3(C([H])([H])[H])OC4([H])OC1(C([H])([H])[H])C([H])([H])OC42O3

$$$$
40:0:2
     RDKit          3D

 38 41  0  0  1  0  0  0  0  0999 V2000
    7.6953   -3.0376   -0.6319 C   0  0  0  0  0  0  0  0  0  0  0  0
    6.1533   -3.0255   -0.5268 C   0  0  2  0  0  0  0  0  0  0  0  0
    5.5023   -2.3257   -1.7484 C   0  0  1  0  0  0  0  0  0  0  0  0
    5.7853   -3.0772   -2.9133 O   0  0  0  0  0  0  0  0  0  0  0  0
    3.9751   -2.1070   -1.6112 C   0  0  1  0  0  0  0  0  0  0  0  0
    3.2934   -1.7438   -2.9428 C   0  0  0  0  0  0  0  0  0  0  0  0
    3.2444   -3.3318   -0.9454 C   0  0  0  0  0  0  0  0  0  0  0  0
    3.5261   -3.4991    0.4591 O   0  0  0  0  0  0  0  0  0  0  0  0
    4.1397   -2.3812    1.0173 C   0  0  1  0  0  0  0  0  0  0  0  0
    3.8947   -2.1728    2.3580 O   0  0  0  0  0  0  0  0  0  0  0  0
    4.1689   -0.8099    2.5262 C   0  0  1  0  0  0  0  0  0  0  0  0
    3.4181   -0.2695    3.7452 C   0  0  0  0  0  0  0  0  0  0  0  0
    5.6940   -0.6547    2.6311 C   0  0  0  0  0  0  0  0  0  0  0  0
    6.3224   -1.1318    1.3041 C   0  0  0  0  0  0  0  0  0  0  0  0
    5.6979   -2.4719    0.8587 C   0  0  2  0  0  0  0  0  0  0  0  0
    3.7574   -0.1351    1.3827 O   0  0  0  0  0  0  0  0  0  0  0  0
    3.4540   -1.1268    0.4661 C   0  0  1  0  0  0  0  0  0  0  0  0
    3.8945   -0.9090   -0.8280 O   0  0  0  0  0  0  0  0  0  0  0  0
    8.1005   -2.0256   -0.6773 H   0  0  0  0  0  0  0  0  0  0  0  0
    8.0359   -3.5631   -1.5264 H   0  0  0  0  0  0  0  0  0  0  0  0
    8.1341   -3.5305    0.2370 H   0  0  0  0  0  0  0  0  0  0  0  0
    5.8361   -4.0695   -0.5532 H   0  0  0  0  0  0  0  0  0  0  0  0
    5.9588   -1.3468   -1.8930 H   0  0  0  0  0  0  0  0  0  0  0  0
    5.4210   -3.9416   -2.8010 H   0  0  0  0  0  0  0  0  0  0  0  0
    3.2819   -2.5870   -3.6341 H   0  0  0  0  0  0  0  0  0  0  0  0
    3.7897   -0.9065   -3.4319 H   0  0  0  0  0  0  0  0  0  0  0  0
    2.2594   -1.4578   -2.7587 H   0  0  0  0  0  0  0  0  0  0  0  0
    2.1656   -3.2220   -1.0524 H   0  0  0  0  0  0  0  0  0  0  0  0
    3.5015   -4.2560   -1.4616 H   0  0  0  0  0  0  0  0  0  0  0  0
    2.3424   -0.3955    3.6136 H   0  0  0  0  0  0  0  0  0  0  0  0
    3.6378    0.7920    3.8658 H   0  0  0  0  0  0  0  0  0  0  0  0
    3.7367   -0.8042    4.6394 H   0  0  0  0  0  0  0  0  0  0  0  0
    5.9446    0.3800    2.8458 H   0  0  0  0  0  0  0  0  0  0  0  0
    6.0238   -1.2639    3.4694 H   0  0  0  0  0  0  0  0  0  0  0  0
    6.1962   -0.3722    0.5287 H   0  0  0  0  0  0  0  0  0  0  0  0
    7.3982   -1.2421    1.4457 H   0  0  0  0  0  0  0  0  0  0  0  0
    6.0170   -3.2224    1.5841 H   0  0  0  0  0  0  0  0  0  0  0  0
    2.3730   -1.2378    0.4805 H   0  0  0  0  0  0  0  0  0  0  0  0
  1  2  1  0
  1 19  1  0
  1 20  1  0
  1 21  1  0
  2 15  1  0
  2  3  1  0
  2 22  1  1
  3  4  1  0
  3  5  1  0
  3 23  1  6
  4 24  1  0
  5 18  1  0
  5  6  1  6
  5  7  1  0
  6 25  1  0
  6 26  1  0
  6 27  1  0
  7  8  1  0
  7 28  1  0
  7 29  1  0
  9  8  1  6
  9 15  1  0
  9 17  1  0
  9 10  1  0
 10 11  1  0
 11 12  1  1
 11 13  1  0
 11 16  1  0
 12 30  1  0
 12 31  1  0
 12 32  1  0
 13 14  1  0
 13 33  1  0
 13 34  1  0
 14 15  1  0
 14 35  1  0
 14 36  1  0
 15 37  1  1
 16 17  1  0
 17 18  1  0
 17 38  1  6
M  END
>  <i_m_ct_stereo_status>  (118) 
1

>  <s_m_source_file>  (118) 
/var/tmp/pbs.5076255.sched01/tmpa1vw3d_c/4207j0axjo.sdf

>  <i_m_source_file_index>  (118) 
31

>  <i_lp_mmshare_version>  (118) 
48012

>  <i_f3d_flags>  (118) 
0

>  <s_epik_input>  (118) 
W0NAXTEyM1tDQEhdNFtDQEhdKFtDSDNdKVtDQEBIXShbT0hdKVtDQEBdKFtDSDNdKShbQ0gyXU8xKU9bQ0BASF0zT1tDQF0oTzIpKFtDSDNdKVtDSDJdW0NIMl00

>  <s_epik_cmdline>  (118) 
J2VwaWtfcHl0aG9uJywgJy1waHQnLCAnMi4wJywgJy1waCcsICc3LjAnLCAnLXRuJywgJzgnLCAnLW1hJywgJzIwMCcsICctaW1hZScsICc8aW5maWxlLm1hZT4nLCAnLW9tYWUnLCAnPG91dGZpbGUubWFlPic=

>  <r_lp_tautomer_probability>  (118) 
1

>  <r_epik_Ionization_Penalty>  (118) 
1.06639e-07

>  <r_epik_Ionization_Penalty_Charging>  (118) 
0

>  <r_epik_Ionization_Penalty_Neutral>  (118) 
1.06639e-07

>  <r_epik_State_Penalty>  (118) 
-0

>  <r_epik_Charging_Adjusted_Penalty>  (118) 
0

>  <i_epik_Tot_Q>  (118) 
0

>  <i_epik_Tot_abs_Q>  (118) 
0

>  <s_epik_Chemistry_Notes>  (118) 
This compound contains an acetal/aminal-like group ( X-CH(R)-Y where X, Y are N, S, or O) that may be acid/base labile, releasing an aldehyde.

>  <s_lp_Force_Field>  (118) 
OPLS3e

>  <r_lp_Energy>  (118) 
41.7123

>  <b_lp_Chiralities_Consistent>  (118) 
1

>  <s_lp_Variant>  (118) 
40:0-1

>  <s_i_glide_gridfile>  (118) 
pfpi4k_grid

>  <i_i_glide_lignum>  (118) 
31

>  <i_i_glide_rotatable_bonds>  (118) 
1

>  <r_i_docking_score>  (118) 
-3.57187

>  <r_i_glide_ligand_efficiency>  (118) 
-0.198437

>  <r_i_glide_ligand_efficiency_sa>  (118) 
-0.520052

>  <r_i_glide_ligand_efficiency_ln>  (118) 
-0.91813

>  <r_i_glide_gscore>  (118) 
-3.57187

>  <r_i_glide_lipo>  (118) 
-0.461278

>  <r_i_glide_hbond>  (118) 
0

>  <r_i_glide_metal>  (118) 
-0

>  <r_i_glide_rewards>  (118) 
-1.71102

>  <r_i_glide_evdw>  (118) 
-22.0658

>  <r_i_glide_ecoul>  (118) 
-1.53785

>  <r_i_glide_erotb>  (118) 
0

>  <r_i_glide_esite>  (118) 
-0.0655994

>  <r_i_glide_emodel>  (118) 
-29.0071

>  <r_i_glide_energy>  (118) 
-23.6037

>  <r_i_glide_einternal>  (118) 
0.000329951

>  <r_i_glide_intrahb_reward>  (118) 
-0

>  <i_i_glide_confnum>  (118) 
1

>  <i_i_glide_posenum>  (118) 
2

>  <r_i_glide_eff_state_penalty>  (118) 
0

>  <ligand_id>  (118) 
40

>  <original_smiles>  (118) 
CC1C(O)C2(C)COC34OC(C)(CCC13)OC4O2

>  <smiles>  (118) 
[H]OC1([H])C([H])(C([H])([H])[H])C2([H])C([H])([H])C([H])([H])C3(C([H])([H])[H])OC4([H])OC1(C([H])([H])[H])C([H])([H])OC42O3

$$$$
41:0:0
     RDKit          3D

 34 37  0  0  1  0  0  0  0  0999 V2000
    1.4167    0.6403    1.8484 C   0  0  0  0  0  0  0  0  0  0  0  0
    2.1466   -0.6381    1.6776 N   0  0  2  0  0  0  0  0  0  0  0  0
    1.5623   -1.7451    2.4911 C   0  0  0  0  0  0  0  0  0  0  0  0
    2.5867   -2.0940    3.5782 C   0  0  0  0  0  0  0  0  0  0  0  0
    3.8436   -1.8152    2.8173 C   0  0  0  0  0  0  0  0  0  0  0  0
    4.8987   -2.6326    2.6078 C   0  0  0  0  0  0  0  0  0  0  0  0
    5.9074   -2.2781    1.5229 C   0  0  2  0  0  0  0  0  0  0  0  0
    5.9783   -0.7344    1.4494 C   0  0  0  0  0  0  0  0  0  0  0  0
    4.5887   -0.3804    0.8567 C   0  0  1  0  0  0  0  0  0  0  0  0
    4.4856   -1.4762   -0.1879 C   0  0  0  0  0  0  0  0  0  0  0  0
    3.7795   -1.4779   -1.3997 C   0  0  0  0  0  0  0  0  0  0  0  0
    3.8986   -2.5968   -2.2426 C   0  0  0  0  0  0  0  0  0  0  0  0
    4.7213   -3.6916   -1.8740 C   0  0  0  0  0  0  0  0  0  0  0  0
    5.4219   -3.6880   -0.6470 C   0  0  0  0  0  0  0  0  0  0  0  0
    5.2764   -2.5595    0.1815 C   0  0  0  0  0  0  0  0  0  0  0  0
    3.5898   -0.5473    2.0317 C   0  0  1  0  0  0  0  0  0  0  0  0
    1.3925    0.9477    2.8978 H   0  0  0  0  0  0  0  0  0  0  0  0
    0.3856    0.5350    1.5038 H   0  0  0  0  0  0  0  0  0  0  0  0
    1.8866    1.4392    1.2722 H   0  0  0  0  0  0  0  0  0  0  0  0
    0.5756   -1.5238    2.8946 H   0  0  0  0  0  0  0  0  0  0  0  0
    1.4601   -2.6072    1.8358 H   0  0  0  0  0  0  0  0  0  0  0  0
    2.5053   -1.3852    4.4079 H   0  0  0  0  0  0  0  0  0  0  0  0
    2.5028   -3.1138    3.9638 H   0  0  0  0  0  0  0  0  0  0  0  0
    4.9747   -3.5956    3.0907 H   0  0  0  0  0  0  0  0  0  0  0  0
    6.8721   -2.7583    1.6680 H   0  0  0  0  0  0  0  0  0  0  0  0
    6.2111   -0.2555    2.4059 H   0  0  0  0  0  0  0  0  0  0  0  0
    6.7510   -0.4550    0.7348 H   0  0  0  0  0  0  0  0  0  0  0  0
    4.5555    0.6223    0.4387 H   0  0  0  0  0  0  0  0  0  0  0  0
    3.1359   -0.6609   -1.6932 H   0  0  0  0  0  0  0  0  0  0  0  0
    3.3459   -2.6202   -3.1707 H   0  0  0  0  0  0  0  0  0  0  0  0
    4.7835   -4.5444   -2.5359 H   0  0  0  0  0  0  0  0  0  0  0  0
    6.0480   -4.5221   -0.3659 H   0  0  0  0  0  0  0  0  0  0  0  0
    3.7409    0.2690    2.7423 H   0  0  0  0  0  0  0  0  0  0  0  0
    2.0381   -0.9001    0.7007 H   0  0  0  0  0  0  0  0  0  0  0  0
  1  2  1  0
  1 17  1  0
  1 18  1  0
  1 19  1  0
  2 16  1  0
  2  3  1  0
  2 34  1  6
  3  4  1  0
  3 20  1  0
  3 21  1  0
  4  5  1  0
  4 22  1  0
  4 23  1  0
  5 16  1  0
  5  6  2  0
  6  7  1  0
  6 24  1  0
  7 15  1  0
  7  8  1  0
  7 25  1  1
  8  9  1  0
  8 26  1  0
  8 27  1  0
  9 10  1  0
  9 16  1  0
  9 28  1  6
 10 15  2  0
 10 11  1  0
 11 12  2  0
 11 29  1  0
 12 13  1  0
 12 30  1  0
 13 14  2  0
 13 31  1  0
 14 15  1  0
 14 32  1  0
 16 33  1  1
M  CHG  1   2   1
M  END
>  <i_m_ct_stereo_status>  (119) 
1

>  <s_m_source_file>  (119) 
/var/tmp/pbs.5076255.sched01/tmpa1vw3d_c/4207j0axjo.sdf

>  <i_m_source_file_index>  (119) 
32

>  <i_lp_mmshare_version>  (119) 
48012

>  <i_f3d_flags>  (119) 
0

>  <s_epik_input>  (119) 
W0NIMl0xW0NIMl1OKFtDSDNdKVtDQEBIXShDMT0yKVtDQEBIXTNjNGMoW0NASF0oW0NIXTIpW0NIMl0zKVtjSF1bY0hdW2NIXVtjSF00

>  <s_epik_cmdline>  (119) 
J2VwaWtfcHl0aG9uJywgJy1waHQnLCAnMi4wJywgJy1waCcsICc3LjAnLCAnLXRuJywgJzgnLCAnLW1hJywgJzIwMCcsICctaW1hZScsICc8aW5maWxlLm1hZT4nLCAnLW9tYWUnLCAnPG91dGZpbGUubWFlPic=

>  <r_epik_Ionization_Penalty>  (119) 
0.0221033

>  <r_epik_Ionization_Penalty_Charging>  (119) 
0.0221033

>  <r_epik_Ionization_Penalty_Neutral>  (119) 
0

>  <r_epik_State_Penalty>  (119) 
0.0178147

>  <r_epik_Charging_Adjusted_Penalty>  (119) 
0.039918

>  <i_epik_Tot_Q>  (119) 
1

>  <i_epik_Tot_abs_Q>  (119) 
1

>  <s_lp_Force_Field>  (119) 
OPLS3e

>  <r_lp_Energy>  (119) 
35.719

>  <b_lp_Chiralities_Consistent>  (119) 
1

>  <s_lp_Variant>  (119) 
41:0-1

>  <s_i_glide_gridfile>  (119) 
pfpi4k_grid

>  <i_i_glide_lignum>  (119) 
32

>  <i_i_glide_rotatable_bonds>  (119) 
0

>  <r_i_docking_score>  (119) 
-4.31671

>  <r_i_glide_ligand_efficiency>  (119) 
-0.269794

>  <r_i_glide_ligand_efficiency_sa>  (119) 
-0.679839

>  <r_i_glide_ligand_efficiency_ln>  (119) 
-1.14423

>  <r_i_glide_gscore>  (119) 
-4.31671

>  <r_i_glide_lipo>  (119) 
-0.450523

>  <r_i_glide_hbond>  (119) 
-0.170151

>  <r_i_glide_metal>  (119) 
-0

>  <r_i_glide_rewards>  (119) 
-1.96152

>  <r_i_glide_evdw>  (119) 
-16.5751

>  <r_i_glide_ecoul>  (119) 
-5.52633

>  <r_i_glide_erotb>  (119) 
0

>  <r_i_glide_esite>  (119) 
-0.0768089

>  <r_i_glide_emodel>  (119) 
-28.922

>  <r_i_glide_energy>  (119) 
-22.1014

>  <r_i_glide_einternal>  (119) 
0

>  <r_i_glide_intrahb_reward>  (119) 
-0

>  <i_i_glide_confnum>  (119) 
2

>  <i_i_glide_posenum>  (119) 
21

>  <r_i_glide_eff_state_penalty>  (119) 
0

>  <ligand_id>  (119) 
41

>  <original_smiles>  (119) 
CN1CCC2=CC3CC(c4ccccc43)C21

>  <smiles>  (119) 
[H]C1=C2C([H])([H])C([H])([H])[N+]([H])(C([H])([H])[H])C2([H])C2([H])c3c([H])c([H])c([H])c([H])c3C1([H])C2([H])[H]

$$$$
41:0:1
     RDKit          3D

 34 37  0  0  1  0  0  0  0  0999 V2000
    3.0423    0.4792    1.6714 C   0  0  0  0  0  0  0  0  0  0  0  0
    3.1919   -0.8142    0.9630 N   0  0  2  0  0  0  0  0  0  0  0  0
    2.2893   -1.8708    1.5072 C   0  0  0  0  0  0  0  0  0  0  0  0
    3.1772   -2.9211    2.1787 C   0  0  0  0  0  0  0  0  0  0  0  0
    4.3752   -2.8281    1.2873 C   0  0  0  0  0  0  0  0  0  0  0  0
    5.0001   -3.8135    0.6104 C   0  0  0  0  0  0  0  0  0  0  0  0
    5.9767   -3.4501   -0.5019 C   0  0  2  0  0  0  0  0  0  0  0  0
    6.6545   -2.1111   -0.1066 C   0  0  0  0  0  0  0  0  0  0  0  0
    5.4713   -1.1153   -0.2463 C   0  0  1  0  0  0  0  0  0  0  0  0
    4.8528   -1.6363   -1.5275 C   0  0  0  0  0  0  0  0  0  0  0  0
    4.1106   -0.9405   -2.4966 C   0  0  0  0  0  0  0  0  0  0  0  0
    3.6912   -1.6473   -3.6470 C   0  0  0  0  0  0  0  0  0  0  0  0
    4.0311   -3.0109   -3.8198 C   0  0  0  0  0  0  0  0  0  0  0  0
    4.7888   -3.6933   -2.8433 C   0  0  0  0  0  0  0  0  0  0  0  0
    5.1790   -2.9788   -1.6951 C   0  0  0  0  0  0  0  0  0  0  0  0
    4.5824   -1.3540    1.0062 C   0  0  1  0  0  0  0  0  0  0  0  0
    3.2371    0.3723    2.7403 H   0  0  0  0  0  0  0  0  0  0  0  0
    2.0274    0.8613    1.5469 H   0  0  0  0  0  0  0  0  0  0  0  0
    3.7357    1.2165    1.2687 H   0  0  0  0  0  0  0  0  0  0  0  0
    1.4947   -1.4885    2.1476 H   0  0  0  0  0  0  0  0  0  0  0  0
    1.8136   -2.3445    0.6457 H   0  0  0  0  0  0  0  0  0  0  0  0
    3.4517   -2.5841    3.1836 H   0  0  0  0  0  0  0  0  0  0  0  0
    2.7315   -3.9159    2.2384 H   0  0  0  0  0  0  0  0  0  0  0  0
    4.7301   -4.8540    0.7421 H   0  0  0  0  0  0  0  0  0  0  0  0
    6.6813   -4.2496   -0.7193 H   0  0  0  0  0  0  0  0  0  0  0  0
    7.1365   -2.1230    0.8737 H   0  0  0  0  0  0  0  0  0  0  0  0
    7.4259   -1.8841   -0.8423 H   0  0  0  0  0  0  0  0  0  0  0  0
    5.8023   -0.0860   -0.3303 H   0  0  0  0  0  0  0  0  0  0  0  0
    3.8735    0.1068   -2.3733 H   0  0  0  0  0  0  0  0  0  0  0  0
    3.1063   -1.1409   -4.4007 H   0  0  0  0  0  0  0  0  0  0  0  0
    3.6983   -3.5381   -4.6998 H   0  0  0  0  0  0  0  0  0  0  0  0
    5.0422   -4.7348   -2.9731 H   0  0  0  0  0  0  0  0  0  0  0  0
    5.0988   -0.9621    1.8825 H   0  0  0  0  0  0  0  0  0  0  0  0
    2.9000   -0.6855   -0.0008 H   0  0  0  0  0  0  0  0  0  0  0  0
  1  2  1  0
  1 17  1  0
  1 18  1  0
  1 19  1  0
  2 16  1  0
  2  3  1  0
  2 34  1  6
  3  4  1  0
  3 20  1  0
  3 21  1  0
  4  5  1  0
  4 22  1  0
  4 23  1  0
  5 16  1  0
  5  6  2  0
  6  7  1  0
  6 24  1  0
  7 15  1  0
  7  8  1  0
  7 25  1  6
  8  9  1  0
  8 26  1  0
  8 27  1  0
  9 10  1  0
  9 16  1  0
  9 28  1  6
 10 15  2  0
 10 11  1  0
 11 12  2  0
 11 29  1  0
 12 13  1  0
 12 30  1  0
 13 14  2  0
 13 31  1  0
 14 15  1  0
 14 32  1  0
 16 33  1  1
M  CHG  1   2   1
M  END
>  <i_m_ct_stereo_status>  (120) 
1

>  <s_m_source_file>  (120) 
/var/tmp/pbs.5076255.sched01/tmpa1vw3d_c/4207j0axjo.sdf

>  <i_m_source_file_index>  (120) 
32

>  <i_lp_mmshare_version>  (120) 
48012

>  <i_f3d_flags>  (120) 
0

>  <s_epik_input>  (120) 
W0NIMl0xW0NIMl1OKFtDSDNdKVtDQEBIXShDMT0yKVtDQEBIXTNjNGMoW0NASF0oW0NIXTIpW0NIMl0zKVtjSF1bY0hdW2NIXVtjSF00

>  <s_epik_cmdline>  (120) 
J2VwaWtfcHl0aG9uJywgJy1waHQnLCAnMi4wJywgJy1waCcsICc3LjAnLCAnLXRuJywgJzgnLCAnLW1hJywgJzIwMCcsICctaW1hZScsICc8aW5maWxlLm1hZT4nLCAnLW9tYWUnLCAnPG91dGZpbGUubWFlPic=

>  <r_epik_Ionization_Penalty>  (120) 
0.0221033

>  <r_epik_Ionization_Penalty_Charging>  (120) 
0.0221033

>  <r_epik_Ionization_Penalty_Neutral>  (120) 
0

>  <r_epik_State_Penalty>  (120) 
0.0178147

>  <r_epik_Charging_Adjusted_Penalty>  (120) 
0.039918

>  <i_epik_Tot_Q>  (120) 
1

>  <i_epik_Tot_abs_Q>  (120) 
1

>  <s_lp_Force_Field>  (120) 
OPLS3e

>  <r_lp_Energy>  (120) 
35.719

>  <b_lp_Chiralities_Consistent>  (120) 
1

>  <s_lp_Variant>  (120) 
41:0-1

>  <s_i_glide_gridfile>  (120) 
pfpi4k_grid

>  <i_i_glide_lignum>  (120) 
32

>  <i_i_glide_rotatable_bonds>  (120) 
0

>  <r_i_docking_score>  (120) 
-4.22952

>  <r_i_glide_ligand_efficiency>  (120) 
-0.264345

>  <r_i_glide_ligand_efficiency_sa>  (120) 
-0.666108

>  <r_i_glide_ligand_efficiency_ln>  (120) 
-1.12112

>  <r_i_glide_gscore>  (120) 
-4.22952

>  <r_i_glide_lipo>  (120) 
-0.664442

>  <r_i_glide_hbond>  (120) 
-0.0246472

>  <r_i_glide_metal>  (120) 
-0

>  <r_i_glide_rewards>  (120) 
-1.96152

>  <r_i_glide_evdw>  (120) 
-19.8269

>  <r_i_glide_ecoul>  (120) 
-3.55232

>  <r_i_glide_erotb>  (120) 
0

>  <r_i_glide_esite>  (120) 
-0.0547184

>  <r_i_glide_emodel>  (120) 
-30.0966

>  <r_i_glide_energy>  (120) 
-23.3792

>  <r_i_glide_einternal>  (120) 
0

>  <r_i_glide_intrahb_reward>  (120) 
-0

>  <i_i_glide_confnum>  (120) 
1

>  <i_i_glide_posenum>  (120) 
7

>  <r_i_glide_eff_state_penalty>  (120) 
0

>  <ligand_id>  (120) 
41

>  <original_smiles>  (120) 
CN1CCC2=CC3CC(c4ccccc43)C21

>  <smiles>  (120) 
[H]C1=C2C([H])([H])C([H])([H])[N+]([H])(C([H])([H])[H])C2([H])C2([H])c3c([H])c([H])c([H])c([H])c3C1([H])C2([H])[H]

$$$$
41:0:2
     RDKit          3D

 34 37  0  0  1  0  0  0  0  0999 V2000
    3.7125   -6.1973    1.0166 C   0  0  0  0  0  0  0  0  0  0  0  0
    4.4268   -5.0590    0.3908 N   0  0  2  0  0  0  0  0  0  0  0  0
    5.9023   -5.2770    0.3260 C   0  0  0  0  0  0  0  0  0  0  0  0
    6.5505   -4.2675    1.2786 C   0  0  0  0  0  0  0  0  0  0  0  0
    5.5842   -3.1365    1.1204 C   0  0  0  0  0  0  0  0  0  0  0  0
    5.8362   -1.8558    0.7814 C   0  0  0  0  0  0  0  0  0  0  0  0
    4.6832   -0.9671    0.3300 C   0  0  2  0  0  0  0  0  0  0  0  0
    3.4158   -1.4228    1.1003 C   0  0  0  0  0  0  0  0  0  0  0  0
    3.1467   -2.8115    0.4586 C   0  0  1  0  0  0  0  0  0  0  0  0
    3.4331   -2.4831   -0.9907 C   0  0  0  0  0  0  0  0  0  0  0  0
    2.8903   -3.0613   -2.1494 C   0  0  0  0  0  0  0  0  0  0  0  0
    3.2536   -2.5218   -3.4043 C   0  0  0  0  0  0  0  0  0  0  0  0
    4.1157   -1.4015   -3.4773 C   0  0  0  0  0  0  0  0  0  0  0  0
    4.6324   -0.8148   -2.2994 C   0  0  0  0  0  0  0  0  0  0  0  0
    4.2913   -1.3927   -1.0655 C   0  0  0  0  0  0  0  0  0  0  0  0
    4.2029   -3.7613    1.0873 C   0  0  1  0  0  0  0  0  0  0  0  0
    4.0787   -6.3871    2.0272 H   0  0  0  0  0  0  0  0  0  0  0  0
    3.8618   -7.1065    0.4322 H   0  0  0  0  0  0  0  0  0  0  0  0
    2.6410   -5.9993    1.0681 H   0  0  0  0  0  0  0  0  0  0  0  0
    6.2111   -6.3062    0.5101 H   0  0  0  0  0  0  0  0  0  0  0  0
    6.2038   -5.0206   -0.6887 H   0  0  0  0  0  0  0  0  0  0  0  0
    6.4980   -4.6422    2.3059 H   0  0  0  0  0  0  0  0  0  0  0  0
    7.5869   -4.0207    1.0373 H   0  0  0  0  0  0  0  0  0  0  0  0
    6.8479   -1.4798    0.6927 H   0  0  0  0  0  0  0  0  0  0  0  0
    4.8961    0.0963    0.4349 H   0  0  0  0  0  0  0  0  0  0  0  0
    3.5291   -1.4263    2.1872 H   0  0  0  0  0  0  0  0  0  0  0  0
    2.5949   -0.7441    0.8640 H   0  0  0  0  0  0  0  0  0  0  0  0
    2.1249   -3.1515    0.6087 H   0  0  0  0  0  0  0  0  0  0  0  0
    2.2015   -3.8879   -2.0839 H   0  0  0  0  0  0  0  0  0  0  0  0
    2.8482   -2.9565   -4.3066 H   0  0  0  0  0  0  0  0  0  0  0  0
    4.3673   -0.9831   -4.4417 H   0  0  0  0  0  0  0  0  0  0  0  0
    5.2624    0.0613   -2.3331 H   0  0  0  0  0  0  0  0  0  0  0  0
    3.9434   -3.9471    2.1288 H   0  0  0  0  0  0  0  0  0  0  0  0
    4.1010   -4.9691   -0.5655 H   0  0  0  0  0  0  0  0  0  0  0  0
  1  2  1  0
  1 17  1  0
  1 18  1  0
  1 19  1  0
  2 16  1  0
  2  3  1  0
  2 34  1  6
  3  4  1  0
  3 20  1  0
  3 21  1  0
  4  5  1  0
  4 22  1  0
  4 23  1  0
  5 16  1  0
  5  6  2  0
  6  7  1  0
  6 24  1  0
  7 15  1  0
  7  8  1  0
  7 25  1  6
  8  9  1  0
  8 26  1  0
  8 27  1  0
  9 10  1  0
  9 16  1  0
  9 28  1  6
 10 15  2  0
 10 11  1  0
 11 12  2  0
 11 29  1  0
 12 13  1  0
 12 30  1  0
 13 14  2  0
 13 31  1  0
 14 15  1  0
 14 32  1  0
 16 33  1  1
M  CHG  1   2   1
M  END
>  <i_m_ct_stereo_status>  (121) 
1

>  <s_m_source_file>  (121) 
/var/tmp/pbs.5076255.sched01/tmpa1vw3d_c/4207j0axjo.sdf

>  <i_m_source_file_index>  (121) 
32

>  <i_lp_mmshare_version>  (121) 
48012

>  <i_f3d_flags>  (121) 
0

>  <s_epik_input>  (121) 
W0NIMl0xW0NIMl1OKFtDSDNdKVtDQEBIXShDMT0yKVtDQEBIXTNjNGMoW0NASF0oW0NIXTIpW0NIMl0zKVtjSF1bY0hdW2NIXVtjSF00

>  <s_epik_cmdline>  (121) 
J2VwaWtfcHl0aG9uJywgJy1waHQnLCAnMi4wJywgJy1waCcsICc3LjAnLCAnLXRuJywgJzgnLCAnLW1hJywgJzIwMCcsICctaW1hZScsICc8aW5maWxlLm1hZT4nLCAnLW9tYWUnLCAnPG91dGZpbGUubWFlPic=

>  <r_epik_Ionization_Penalty>  (121) 
0.0221033

>  <r_epik_Ionization_Penalty_Charging>  (121) 
0.0221033

>  <r_epik_Ionization_Penalty_Neutral>  (121) 
0

>  <r_epik_State_Penalty>  (121) 
0.0178147

>  <r_epik_Charging_Adjusted_Penalty>  (121) 
0.039918

>  <i_epik_Tot_Q>  (121) 
1

>  <i_epik_Tot_abs_Q>  (121) 
1

>  <s_lp_Force_Field>  (121) 
OPLS3e

>  <r_lp_Energy>  (121) 
35.719

>  <b_lp_Chiralities_Consistent>  (121) 
1

>  <s_lp_Variant>  (121) 
41:0-1

>  <s_i_glide_gridfile>  (121) 
pfpi4k_grid

>  <i_i_glide_lignum>  (121) 
32

>  <i_i_glide_rotatable_bonds>  (121) 
0

>  <r_i_docking_score>  (121) 
-4.08803

>  <r_i_glide_ligand_efficiency>  (121) 
-0.255502

>  <r_i_glide_ligand_efficiency_sa>  (121) 
-0.643825

>  <r_i_glide_ligand_efficiency_ln>  (121) 
-1.08361

>  <r_i_glide_gscore>  (121) 
-4.08803

>  <r_i_glide_lipo>  (121) 
-0.859415

>  <r_i_glide_hbond>  (121) 
0

>  <r_i_glide_metal>  (121) 
-0

>  <r_i_glide_rewards>  (121) 
-1.96152

>  <r_i_glide_evdw>  (121) 
-19.3304

>  <r_i_glide_ecoul>  (121) 
-2.00384

>  <r_i_glide_erotb>  (121) 
0

>  <r_i_glide_esite>  (121) 
0

>  <r_i_glide_emodel>  (121) 
-27.8141

>  <r_i_glide_energy>  (121) 
-21.3342

>  <r_i_glide_einternal>  (121) 
0

>  <r_i_glide_intrahb_reward>  (121) 
-0

>  <i_i_glide_confnum>  (121) 
1

>  <i_i_glide_posenum>  (121) 
3

>  <r_i_glide_eff_state_penalty>  (121) 
0

>  <ligand_id>  (121) 
41

>  <original_smiles>  (121) 
CN1CCC2=CC3CC(c4ccccc43)C21

>  <smiles>  (121) 
[H]C1=C2C([H])([H])C([H])([H])[N+]([H])(C([H])([H])[H])C2([H])C2([H])c3c([H])c([H])c([H])c([H])c3C1([H])C2([H])[H]

$$$$
41:1:0
     RDKit          3D

 33 36  0  0  1  0  0  0  0  0999 V2000
    5.0722   -0.3203    1.8473 C   0  0  0  0  0  0  0  0  0  0  0  0
    4.2847   -1.4535    1.4016 N   0  0  0  0  0  0  0  0  0  0  0  0
    3.5040   -2.0571    2.4900 C   0  0  0  0  0  0  0  0  0  0  0  0
    3.1779   -3.4932    2.0387 C   0  0  0  0  0  0  0  0  0  0  0  0
    4.0881   -3.6834    0.8586 C   0  0  0  0  0  0  0  0  0  0  0  0
    3.9719   -4.5429   -0.1756 C   0  0  0  0  0  0  0  0  0  0  0  0
    4.8781   -4.3637   -1.3965 C   0  0  2  0  0  0  0  0  0  0  0  0
    6.2269   -3.7917   -0.8979 C   0  0  0  0  0  0  0  0  0  0  0  0
    5.8248   -2.3649   -0.4640 C   0  0  1  0  0  0  0  0  0  0  0  0
    4.9018   -2.0137   -1.6176 C   0  0  0  0  0  0  0  0  0  0  0  0
    4.6101   -0.7487   -2.1465 C   0  0  0  0  0  0  0  0  0  0  0  0
    3.7668   -0.6786   -3.2767 C   0  0  0  0  0  0  0  0  0  0  0  0
    3.2437   -1.8583   -3.8630 C   0  0  0  0  0  0  0  0  0  0  0  0
    3.5488   -3.1299   -3.3184 C   0  0  0  0  0  0  0  0  0  0  0  0
    4.3829   -3.1682   -2.1855 C   0  0  0  0  0  0  0  0  0  0  0  0
    5.0902   -2.5571    0.9006 C   0  0  1  0  0  0  0  0  0  0  0  0
    4.4104    0.4475    2.2507 H   0  0  0  0  0  0  0  0  0  0  0  0
    5.6228    0.1130    1.0095 H   0  0  0  0  0  0  0  0  0  0  0  0
    5.7854   -0.6072    2.6240 H   0  0  0  0  0  0  0  0  0  0  0  0
    4.1104   -2.0998    3.3978 H   0  0  0  0  0  0  0  0  0  0  0  0
    2.6073   -1.4719    2.7110 H   0  0  0  0  0  0  0  0  0  0  0  0
    3.3980   -4.2129    2.8279 H   0  0  0  0  0  0  0  0  0  0  0  0
    2.1362   -3.6026    1.7425 H   0  0  0  0  0  0  0  0  0  0  0  0
    3.1852   -5.2774   -0.2303 H   0  0  0  0  0  0  0  0  0  0  0  0
    5.0162   -5.2705   -1.9828 H   0  0  0  0  0  0  0  0  0  0  0  0
    6.7093   -4.4015   -0.1219 H   0  0  0  0  0  0  0  0  0  0  0  0
    6.9154   -3.7312   -1.7405 H   0  0  0  0  0  0  0  0  0  0  0  0
    6.6794   -1.6903   -0.3941 H   0  0  0  0  0  0  0  0  0  0  0  0
    5.0104    0.1423   -1.7012 H   0  0  0  0  0  0  0  0  0  0  0  0
    3.5068    0.2870   -3.6919 H   0  0  0  0  0  0  0  0  0  0  0  0
    2.5902   -1.7749   -4.7208 H   0  0  0  0  0  0  0  0  0  0  0  0
    3.1490   -4.0309   -3.7597 H   0  0  0  0  0  0  0  0  0  0  0  0
    5.8296   -2.8287    1.6584 H   0  0  0  0  0  0  0  0  0  0  0  0
  1  2  1  0
  1 17  1  0
  1 18  1  0
  1 19  1  0
  2 16  1  0
  2  3  1  0
  3  4  1  0
  3 20  1  0
  3 21  1  0
  4  5  1  0
  4 22  1  0
  4 23  1  0
  5 16  1  0
  5  6  2  0
  6  7  1  0
  6 24  1  0
  7 15  1  0
  7  8  1  0
  7 25  1  6
  8  9  1  0
  8 26  1  0
  8 27  1  0
  9 10  1  0
  9 16  1  0
  9 28  1  1
 10 15  2  0
 10 11  1  0
 11 12  2  0
 11 29  1  0
 12 13  1  0
 12 30  1  0
 13 14  2  0
 13 31  1  0
 14 15  1  0
 14 32  1  0
 16 33  1  1
M  END
>  <i_m_ct_stereo_status>  (122) 
1

>  <s_m_source_file>  (122) 
/var/tmp/pbs.5076255.sched01/tmpa1vw3d_c/4207j0axjo.sdf

>  <i_m_source_file_index>  (122) 
33

>  <i_lp_mmshare_version>  (122) 
48012

>  <i_f3d_flags>  (122) 
0

>  <s_epik_input>  (122) 
W0NIMl0xW0NIMl1OKFtDSDNdKVtDQEBIXShDMT0yKVtDQEBIXTNjNGMoW0NASF0oW0NIXTIpW0NIMl0zKVtjSF1bY0hdW2NIXVtjSF00

>  <s_epik_cmdline>  (122) 
J2VwaWtfcHl0aG9uJywgJy1waHQnLCAnMi4wJywgJy1waCcsICc3LjAnLCAnLXRuJywgJzgnLCAnLW1hJywgJzIwMCcsICctaW1hZScsICc8aW5maWxlLm1hZT4nLCAnLW9tYWUnLCAnPG91dGZpbGUubWFlPic=

>  <r_epik_Ionization_Penalty>  (122) 
1.95946

>  <r_epik_Ionization_Penalty_Charging>  (122) 
0

>  <r_epik_Ionization_Penalty_Neutral>  (122) 
1.95946

>  <r_epik_State_Penalty>  (122) 
2.08513

>  <r_epik_Charging_Adjusted_Penalty>  (122) 
2.08513

>  <i_epik_Tot_Q>  (122) 
0

>  <i_epik_Tot_abs_Q>  (122) 
0

>  <s_lp_Force_Field>  (122) 
OPLS3e

>  <r_lp_Energy>  (122) 
27.29

>  <b_lp_Chiralities_Consistent>  (122) 
1

>  <s_lp_Variant>  (122) 
41:0-2

>  <s_i_glide_gridfile>  (122) 
pfpi4k_grid

>  <i_i_glide_lignum>  (122) 
33

>  <i_i_glide_rotatable_bonds>  (122) 
0

>  <r_i_docking_score>  (122) 
-3.7496

>  <r_i_glide_ligand_efficiency>  (122) 
-0.23435

>  <r_i_glide_ligand_efficiency_sa>  (122) 
-0.590525

>  <r_i_glide_ligand_efficiency_ln>  (122) 
-0.993906

>  <r_i_glide_gscore>  (122) 
-3.7496

>  <r_i_glide_lipo>  (122) 
-0.694283

>  <r_i_glide_hbond>  (122) 
0

>  <r_i_glide_metal>  (122) 
-0

>  <r_i_glide_rewards>  (122) 
-1.96839

>  <r_i_glide_evdw>  (122) 
-18.3249

>  <r_i_glide_ecoul>  (122) 
-1.13786

>  <r_i_glide_erotb>  (122) 
0

>  <r_i_glide_esite>  (122) 
0

>  <r_i_glide_emodel>  (122) 
-23.8413

>  <r_i_glide_energy>  (122) 
-19.4627

>  <r_i_glide_einternal>  (122) 
0

>  <r_i_glide_intrahb_reward>  (122) 
-0

>  <i_i_glide_confnum>  (122) 
1

>  <i_i_glide_posenum>  (122) 
32

>  <r_i_glide_eff_state_penalty>  (122) 
0

>  <ligand_id>  (122) 
41

>  <original_smiles>  (122) 
CN1CCC2=CC3CC(c4ccccc43)C21

>  <smiles>  (122) 
[H]C1=C2C([H])([H])C([H])([H])N(C([H])([H])[H])C2([H])C2([H])c3c([H])c([H])c([H])c([H])c3C1([H])C2([H])[H]

$$$$
41:1:1
     RDKit          3D

 33 36  0  0  1  0  0  0  0  0999 V2000
    3.6666    0.4399    1.6273 C   0  0  0  0  0  0  0  0  0  0  0  0
    3.7474   -0.9997    1.4600 N   0  0  0  0  0  0  0  0  0  0  0  0
    3.1762   -1.7230    2.6031 C   0  0  0  0  0  0  0  0  0  0  0  0
    3.7864   -3.1389    2.5576 C   0  0  0  0  0  0  0  0  0  0  0  0
    4.9084   -2.9807    1.5764 C   0  0  0  0  0  0  0  0  0  0  0  0
    5.5161   -3.9232    0.8240 C   0  0  0  0  0  0  0  0  0  0  0  0
    6.4454   -3.4887   -0.3078 C   0  0  2  0  0  0  0  0  0  0  0  0
    7.1243   -2.1623    0.1208 C   0  0  0  0  0  0  0  0  0  0  0  0
    5.9269   -1.1760    0.0873 C   0  0  1  0  0  0  0  0  0  0  0  0
    5.2595   -1.6420   -1.1911 C   0  0  0  0  0  0  0  0  0  0  0  0
    4.4702   -0.9108   -2.0934 C   0  0  0  0  0  0  0  0  0  0  0  0
    4.0117   -1.5602   -3.2600 C   0  0  0  0  0  0  0  0  0  0  0  0
    4.3519   -2.9117   -3.5115 C   0  0  0  0  0  0  0  0  0  0  0  0
    5.1448   -3.6306   -2.5964 C   0  0  0  0  0  0  0  0  0  0  0  0
    5.5909   -2.9695   -1.4379 C   0  0  0  0  0  0  0  0  0  0  0  0
    5.1125   -1.4954    1.3749 C   0  0  1  0  0  0  0  0  0  0  0  0
    2.6247    0.7495    1.7235 H   0  0  0  0  0  0  0  0  0  0  0  0
    4.0911    0.9451    0.7574 H   0  0  0  0  0  0  0  0  0  0  0  0
    4.2059    0.7626    2.5198 H   0  0  0  0  0  0  0  0  0  0  0  0
    3.4724   -1.2385    3.5355 H   0  0  0  0  0  0  0  0  0  0  0  0
    2.0854   -1.7349    2.5641 H   0  0  0  0  0  0  0  0  0  0  0  0
    4.1630   -3.4337    3.5377 H   0  0  0  0  0  0  0  0  0  0  0  0
    3.0715   -3.8833    2.2070 H   0  0  0  0  0  0  0  0  0  0  0  0
    5.2783   -4.9741    0.9254 H   0  0  0  0  0  0  0  0  0  0  0  0
    7.1604   -4.2548   -0.5946 H   0  0  0  0  0  0  0  0  0  0  0  0
    7.6384   -2.2178    1.0782 H   0  0  0  0  0  0  0  0  0  0  0  0
    7.8686   -1.8916   -0.6280 H   0  0  0  0  0  0  0  0  0  0  0  0
    6.2334   -0.1327    0.0380 H   0  0  0  0  0  0  0  0  0  0  0  0
    4.2255    0.1203   -1.9037 H   0  0  0  0  0  0  0  0  0  0  0  0
    3.4015   -1.0206   -3.9688 H   0  0  0  0  0  0  0  0  0  0  0  0
    3.9997   -3.4039   -4.4081 H   0  0  0  0  0  0  0  0  0  0  0  0
    5.4079   -4.6565   -2.7892 H   0  0  0  0  0  0  0  0  0  0  0  0
    5.6746   -1.1452    2.2415 H   0  0  0  0  0  0  0  0  0  0  0  0
  1  2  1  0
  1 17  1  0
  1 18  1  0
  1 19  1  0
  2 16  1  0
  2  3  1  0
  3  4  1  0
  3 20  1  0
  3 21  1  0
  4  5  1  0
  4 22  1  0
  4 23  1  0
  5 16  1  0
  5  6  2  0
  6  7  1  0
  6 24  1  0
  7 15  1  0
  7  8  1  0
  7 25  1  6
  8  9  1  0
  8 26  1  0
  8 27  1  0
  9 10  1  0
  9 16  1  0
  9 28  1  6
 10 15  2  0
 10 11  1  0
 11 12  2  0
 11 29  1  0
 12 13  1  0
 12 30  1  0
 13 14  2  0
 13 31  1  0
 14 15  1  0
 14 32  1  0
 16 33  1  1
M  END
>  <i_m_ct_stereo_status>  (123) 
1

>  <s_m_source_file>  (123) 
/var/tmp/pbs.5076255.sched01/tmpa1vw3d_c/4207j0axjo.sdf

>  <i_m_source_file_index>  (123) 
33

>  <i_lp_mmshare_version>  (123) 
48012

>  <i_f3d_flags>  (123) 
0

>  <s_epik_input>  (123) 
W0NIMl0xW0NIMl1OKFtDSDNdKVtDQEBIXShDMT0yKVtDQEBIXTNjNGMoW0NASF0oW0NIXTIpW0NIMl0zKVtjSF1bY0hdW2NIXVtjSF00

>  <s_epik_cmdline>  (123) 
J2VwaWtfcHl0aG9uJywgJy1waHQnLCAnMi4wJywgJy1waCcsICc3LjAnLCAnLXRuJywgJzgnLCAnLW1hJywgJzIwMCcsICctaW1hZScsICc8aW5maWxlLm1hZT4nLCAnLW9tYWUnLCAnPG91dGZpbGUubWFlPic=

>  <r_epik_Ionization_Penalty>  (123) 
1.95946

>  <r_epik_Ionization_Penalty_Charging>  (123) 
0

>  <r_epik_Ionization_Penalty_Neutral>  (123) 
1.95946

>  <r_epik_State_Penalty>  (123) 
2.08513

>  <r_epik_Charging_Adjusted_Penalty>  (123) 
2.08513

>  <i_epik_Tot_Q>  (123) 
0

>  <i_epik_Tot_abs_Q>  (123) 
0

>  <s_lp_Force_Field>  (123) 
OPLS3e

>  <r_lp_Energy>  (123) 
27.29

>  <b_lp_Chiralities_Consistent>  (123) 
1

>  <s_lp_Variant>  (123) 
41:0-2

>  <s_i_glide_gridfile>  (123) 
pfpi4k_grid

>  <i_i_glide_lignum>  (123) 
33

>  <i_i_glide_rotatable_bonds>  (123) 
0

>  <r_i_docking_score>  (123) 
-3.62416

>  <r_i_glide_ligand_efficiency>  (123) 
-0.22651

>  <r_i_glide_ligand_efficiency_sa>  (123) 
-0.57077

>  <r_i_glide_ligand_efficiency_ln>  (123) 
-0.960656

>  <r_i_glide_gscore>  (123) 
-3.62416

>  <r_i_glide_lipo>  (123) 
-0.765475

>  <r_i_glide_hbond>  (123) 
0

>  <r_i_glide_metal>  (123) 
-0

>  <r_i_glide_rewards>  (123) 
-1.96839

>  <r_i_glide_evdw>  (123) 
-19.7505

>  <r_i_glide_ecoul>  (123) 
0.648208

>  <r_i_glide_erotb>  (123) 
0

>  <r_i_glide_esite>  (123) 
0

>  <r_i_glide_emodel>  (123) 
-23.3466

>  <r_i_glide_energy>  (123) 
-19.1023

>  <r_i_glide_einternal>  (123) 
0

>  <r_i_glide_intrahb_reward>  (123) 
-0

>  <i_i_glide_confnum>  (123) 
2

>  <i_i_glide_posenum>  (123) 
31

>  <r_i_glide_eff_state_penalty>  (123) 
0

>  <ligand_id>  (123) 
41

>  <original_smiles>  (123) 
CN1CCC2=CC3CC(c4ccccc43)C21

>  <smiles>  (123) 
[H]C1=C2C([H])([H])C([H])([H])N(C([H])([H])[H])C2([H])C2([H])c3c([H])c([H])c([H])c([H])c3C1([H])C2([H])[H]

$$$$
41:1:2
     RDKit          3D

 33 36  0  0  1  0  0  0  0  0999 V2000
    3.7307    0.4836    1.5665 C   0  0  0  0  0  0  0  0  0  0  0  0
    3.4027   -0.8919    1.2363 N   0  0  0  0  0  0  0  0  0  0  0  0
    2.6142   -1.5412    2.2913 C   0  0  0  0  0  0  0  0  0  0  0  0
    2.7920   -3.0587    2.0839 C   0  0  0  0  0  0  0  0  0  0  0  0
    3.9359   -3.1247    1.1184 C   0  0  0  0  0  0  0  0  0  0  0  0
    4.2663   -4.1155    0.2624 C   0  0  0  0  0  0  0  0  0  0  0  0
    5.3160   -3.8530   -0.8147 C   0  0  2  0  0  0  0  0  0  0  0  0
    6.3372   -2.8304   -0.2443 C   0  0  0  0  0  0  0  0  0  0  0  0
    5.4716   -1.5460   -0.1662 C   0  0  1  0  0  0  0  0  0  0  0  0
    4.7394   -1.6693   -1.4852 C   0  0  0  0  0  0  0  0  0  0  0  0
    4.2152   -0.6542   -2.2989 C   0  0  0  0  0  0  0  0  0  0  0  0
    3.6188   -1.0067   -3.5241 C   0  0  0  0  0  0  0  0  0  0  0  0
    3.5659   -2.3625   -3.9206 C   0  0  0  0  0  0  0  0  0  0  0  0
    4.1295   -3.3746   -3.1186 C   0  0  0  0  0  0  0  0  0  0  0  0
    4.6903   -2.9997   -1.8854 C   0  0  0  0  0  0  0  0  0  0  0  0
    4.5675   -1.7506    1.0855 C   0  0  1  0  0  0  0  0  0  0  0  0
    2.8169    1.0637    1.7087 H   0  0  0  0  0  0  0  0  0  0  0  0
    4.2933    0.9409    0.7509 H   0  0  0  0  0  0  0  0  0  0  0  0
    4.3231    0.5419    2.4822 H   0  0  0  0  0  0  0  0  0  0  0  0
    3.0085   -1.2686    3.2714 H   0  0  0  0  0  0  0  0  0  0  0  0
    1.5682   -1.2341    2.2546 H   0  0  0  0  0  0  0  0  0  0  0  0
    3.0438   -3.5556    3.0222 H   0  0  0  0  0  0  0  0  0  0  0  0
    1.9026   -3.5233    1.6598 H   0  0  0  0  0  0  0  0  0  0  0  0
    3.7354   -5.0580    0.2400 H   0  0  0  0  0  0  0  0  0  0  0  0
    5.7694   -4.7673   -1.1848 H   0  0  0  0  0  0  0  0  0  0  0  0
    6.7946   -3.1341    0.6982 H   0  0  0  0  0  0  0  0  0  0  0  0
    7.1420   -2.6926   -0.9692 H   0  0  0  0  0  0  0  0  0  0  0  0
    6.0636   -0.6341   -0.1104 H   0  0  0  0  0  0  0  0  0  0  0  0
    4.2573    0.3707   -1.9993 H   0  0  0  0  0  0  0  0  0  0  0  0
    3.2018   -0.2327   -4.1519 H   0  0  0  0  0  0  0  0  0  0  0  0
    3.0881   -2.6185   -4.8523 H   0  0  0  0  0  0  0  0  0  0  0  0
    4.1240   -4.3977   -3.4532 H   0  0  0  0  0  0  0  0  0  0  0  0
    5.1835   -1.6743    1.9832 H   0  0  0  0  0  0  0  0  0  0  0  0
  1  2  1  0
  1 17  1  0
  1 18  1  0
  1 19  1  0
  2 16  1  0
  2  3  1  0
  3  4  1  0
  3 20  1  0
  3 21  1  0
  4  5  1  0
  4 22  1  0
  4 23  1  0
  5 16  1  0
  5  6  2  0
  6  7  1  0
  6 24  1  0
  7 15  1  0
  7  8  1  0
  7 25  1  6
  8  9  1  0
  8 26  1  0
  8 27  1  0
  9 10  1  0
  9 16  1  0
  9 28  1  1
 10 15  2  0
 10 11  1  0
 11 12  2  0
 11 29  1  0
 12 13  1  0
 12 30  1  0
 13 14  2  0
 13 31  1  0
 14 15  1  0
 14 32  1  0
 16 33  1  1
M  END
>  <i_m_ct_stereo_status>  (124) 
1

>  <s_m_source_file>  (124) 
/var/tmp/pbs.5076255.sched01/tmpa1vw3d_c/4207j0axjo.sdf

>  <i_m_source_file_index>  (124) 
33

>  <i_lp_mmshare_version>  (124) 
48012

>  <i_f3d_flags>  (124) 
0

>  <s_epik_input>  (124) 
W0NIMl0xW0NIMl1OKFtDSDNdKVtDQEBIXShDMT0yKVtDQEBIXTNjNGMoW0NASF0oW0NIXTIpW0NIMl0zKVtjSF1bY0hdW2NIXVtjSF00

>  <s_epik_cmdline>  (124) 
J2VwaWtfcHl0aG9uJywgJy1waHQnLCAnMi4wJywgJy1waCcsICc3LjAnLCAnLXRuJywgJzgnLCAnLW1hJywgJzIwMCcsICctaW1hZScsICc8aW5maWxlLm1hZT4nLCAnLW9tYWUnLCAnPG91dGZpbGUubWFlPic=

>  <r_epik_Ionization_Penalty>  (124) 
1.95946

>  <r_epik_Ionization_Penalty_Charging>  (124) 
0

>  <r_epik_Ionization_Penalty_Neutral>  (124) 
1.95946

>  <r_epik_State_Penalty>  (124) 
2.08513

>  <r_epik_Charging_Adjusted_Penalty>  (124) 
2.08513

>  <i_epik_Tot_Q>  (124) 
0

>  <i_epik_Tot_abs_Q>  (124) 
0

>  <s_lp_Force_Field>  (124) 
OPLS3e

>  <r_lp_Energy>  (124) 
27.29

>  <b_lp_Chiralities_Consistent>  (124) 
1

>  <s_lp_Variant>  (124) 
41:0-2

>  <s_i_glide_gridfile>  (124) 
pfpi4k_grid

>  <i_i_glide_lignum>  (124) 
33

>  <i_i_glide_rotatable_bonds>  (124) 
0

>  <r_i_docking_score>  (124) 
-3.41912

>  <r_i_glide_ligand_efficiency>  (124) 
-0.213695

>  <r_i_glide_ligand_efficiency_sa>  (124) 
-0.538477

>  <r_i_glide_ligand_efficiency_ln>  (124) 
-0.906306

>  <r_i_glide_gscore>  (124) 
-3.41912

>  <r_i_glide_lipo>  (124) 
-0.512245

>  <r_i_glide_hbond>  (124) 
0

>  <r_i_glide_metal>  (124) 
-0

>  <r_i_glide_rewards>  (124) 
-1.96839

>  <r_i_glide_evdw>  (124) 
-19.0588

>  <r_i_glide_ecoul>  (124) 
0.0963957

>  <r_i_glide_erotb>  (124) 
0

>  <r_i_glide_esite>  (124) 
0

>  <r_i_glide_emodel>  (124) 
-22.9524

>  <r_i_glide_energy>  (124) 
-18.9624

>  <r_i_glide_einternal>  (124) 
0

>  <r_i_glide_intrahb_reward>  (124) 
-0

>  <i_i_glide_confnum>  (124) 
2

>  <i_i_glide_posenum>  (124) 
15

>  <r_i_glide_eff_state_penalty>  (124) 
0

>  <ligand_id>  (124) 
41

>  <original_smiles>  (124) 
CN1CCC2=CC3CC(c4ccccc43)C21

>  <smiles>  (124) 
[H]C1=C2C([H])([H])C([H])([H])N(C([H])([H])[H])C2([H])C2([H])c3c([H])c([H])c([H])c([H])c3C1([H])C2([H])[H]

$$$$
42:0:0
     RDKit          3D

 92 98  0  0  1  0  0  0  0  0999 V2000
    0.0438   -6.1262    6.0891 C   0  0  0  0  0  0  0  0  0  0  0  0
    1.0150   -7.3557    6.0892 C   0  0  0  0  0  0  0  0  0  0  0  0
    1.0721   -7.5554    7.6390 C   0  0  0  0  0  0  0  0  0  0  0  0
    0.3277   -8.7071    5.6169 C   0  0  0  0  0  0  0  0  0  0  0  0
    0.3099   -9.2568    4.1578 C   0  0  0  0  0  0  0  0  0  0  0  0
    1.6593   -9.5097    3.4646 C   0  0  0  0  0  0  0  0  0  0  0  0
    1.7406  -10.2557    2.5011 O   0  0  0  0  0  0  0  0  0  0  0  0
    2.8834   -8.7500    3.9547 C   0  0  1  0  0  0  0  0  0  0  0  0
    4.0992   -9.4146    4.5850 C   0  0  1  0  0  0  0  0  0  0  0  0
    4.9039  -10.0436    3.5870 O   0  0  0  0  0  0  0  0  0  0  0  0
    4.7194   -8.1747    5.3123 C   0  0  2  0  0  0  0  0  0  0  0  0
    6.0191   -8.5451    6.0894 C   0  0  0  0  0  0  0  0  0  0  0  0
    3.6306   -7.7302    6.3530 C   0  0  1  0  0  0  0  0  0  0  0  0
    4.1223   -6.9551    7.4376 O   0  0  0  0  0  0  0  0  0  0  0  0
    2.4953   -6.9696    5.5427 C   0  0  1  0  0  0  0  0  0  0  0  0
    3.0492   -7.1884    4.0291 C   0  0  2  0  0  0  0  0  0  0  0  0
    2.3966   -6.3925    2.7297 C   0  0  1  0  0  0  0  0  0  0  0  0
    2.4857   -7.2869    1.4813 C   0  0  0  0  0  0  0  0  0  0  0  0
    0.9492   -5.8266    2.6738 C   0  0  1  0  0  0  0  0  0  0  0  0
   -0.1696   -6.5413    3.1100 O   0  0  0  0  0  0  0  0  0  0  0  0
    1.4450   -4.5380    3.3153 C   0  0  0  0  0  0  0  0  0  0  0  0
    2.7341   -4.8316    2.5330 C   0  0  2  0  0  0  0  0  0  0  0  0
    2.9547   -4.0518    1.1947 C   0  0  1  0  0  0  0  0  0  0  0  0
    2.7909   -2.4583    1.2504 C   0  0  0  0  0  0  0  0  0  0  0  0
    3.8836   -1.4390    1.8074 C   0  0  0  0  0  0  0  0  0  0  0  0
    5.4080   -1.4821    1.3373 C   0  0  1  0  0  0  0  0  0  0  0  0
    5.7265   -0.5264    0.1781 C   0  0  0  0  0  0  0  0  0  0  0  0
    6.1816   -0.9496    2.3927 O   0  0  0  0  0  0  0  0  0  0  0  0
    5.7228   -2.9869    1.0750 C   0  0  2  0  0  0  0  0  0  0  0  0
    5.3850   -3.4476    2.3488 O   0  0  0  0  0  0  0  0  0  0  0  0
    6.9923   -3.8574    0.9318 C   0  0  0  0  0  0  0  0  0  0  0  0
    6.4848   -5.3730    1.0679 C   0  0  2  0  0  0  0  0  0  0  0  0
    5.1241   -5.6878    0.3426 C   0  0  0  0  0  0  0  0  0  0  0  0
    4.0746   -4.5388    0.1809 C   0  0  2  0  0  0  0  0  0  0  0  0
    4.9234   -3.3797   -0.1897 C   0  0  0  0  0  0  0  0  0  0  0  0
    6.6715   -6.0433    2.4810 C   0  0  0  0  0  0  0  0  0  0  0  0
    5.7254   -7.2261    3.0165 C   0  0  1  0  0  0  0  0  0  0  0  0
    6.7282   -8.1467    3.3661 O   0  0  0  0  0  0  0  0  0  0  0  0
    4.6830   -7.0146    4.2511 C   0  0  2  0  0  0  0  0  0  0  0  0
    5.1390   -5.6834    4.9550 C   0  0  0  0  0  0  0  0  0  0  0  0
   -0.9581   -6.3746    6.3926 H   0  0  0  0  0  0  0  0  0  0  0  0
   -0.0837   -5.5849    5.1723 H   0  0  0  0  0  0  0  0  0  0  0  0
    0.3805   -5.3652    6.7872 H   0  0  0  0  0  0  0  0  0  0  0  0
    1.5671   -8.4709    7.9728 H   0  0  0  0  0  0  0  0  0  0  0  0
    0.0702   -7.6292    8.0776 H   0  0  0  0  0  0  0  0  0  0  0  0
    1.5705   -6.7277    8.1538 H   0  0  0  0  0  0  0  0  0  0  0  0
    0.7559   -9.5274    6.2043 H   0  0  0  0  0  0  0  0  0  0  0  0
   -0.7100   -8.7002    5.9537 H   0  0  0  0  0  0  0  0  0  0  0  0
   -0.1544  -10.2464    4.2227 H   0  0  0  0  0  0  0  0  0  0  0  0
   -0.3806   -8.7359    3.5068 H   0  0  0  0  0  0  0  0  0  0  0  0
    2.4250   -9.0026    4.8902 H   0  0  0  0  0  0  0  0  0  0  0  0
    3.8491  -10.2156    5.2946 H   0  0  0  0  0  0  0  0  0  0  0  0
    4.3807  -10.7209    3.1792 H   0  0  0  0  0  0  0  0  0  0  0  0
    6.6098   -7.6750    6.3583 H   0  0  0  0  0  0  0  0  0  0  0  0
    6.6695   -9.2202    5.5280 H   0  0  0  0  0  0  0  0  0  0  0  0
    5.7887   -9.0827    7.0011 H   0  0  0  0  0  0  0  0  0  0  0  0
    3.2684   -8.6428    6.8110 H   0  0  0  0  0  0  0  0  0  0  0  0
    4.7062   -7.4925    7.9435 H   0  0  0  0  0  0  0  0  0  0  0  0
    2.5840   -5.9112    5.7518 H   0  0  0  0  0  0  0  0  0  0  0  0
    2.5429   -6.6935    0.5634 H   0  0  0  0  0  0  0  0  0  0  0  0
    1.5689   -7.8589    1.3246 H   0  0  0  0  0  0  0  0  0  0  0  0
    3.2898   -8.0168    1.4685 H   0  0  0  0  0  0  0  0  0  0  0  0
    0.7231   -5.5956    1.6198 H   0  0  0  0  0  0  0  0  0  0  0  0
    0.0739   -6.8988    3.9504 H   0  0  0  0  0  0  0  0  0  0  0  0
    0.8612   -3.6813    2.9817 H   0  0  0  0  0  0  0  0  0  0  0  0
    1.5733   -4.5619    4.3877 H   0  0  0  0  0  0  0  0  0  0  0  0
    3.4736   -4.5740    3.2846 H   0  0  0  0  0  0  0  0  0  0  0  0
    2.0778   -4.3036    0.6089 H   0  0  0  0  0  0  0  0  0  0  0  0
    2.5214   -2.1322    0.2511 H   0  0  0  0  0  0  0  0  0  0  0  0
    1.8784   -2.2287    1.7981 H   0  0  0  0  0  0  0  0  0  0  0  0
    3.5106   -0.4292    1.6165 H   0  0  0  0  0  0  0  0  0  0  0  0
    3.8537   -1.5205    2.8877 H   0  0  0  0  0  0  0  0  0  0  0  0
    5.0702   -0.6284   -0.6734 H   0  0  0  0  0  0  0  0  0  0  0  0
    6.7435   -0.6775   -0.1464 H   0  0  0  0  0  0  0  0  0  0  0  0
    5.6342    0.5046    0.5101 H   0  0  0  0  0  0  0  0  0  0  0  0
    6.9740   -0.5545    2.0498 H   0  0  0  0  0  0  0  0  0  0  0  0
    5.3998   -4.3884    2.3075 H   0  0  0  0  0  0  0  0  0  0  0  0
    7.4985   -3.6856   -0.0019 H   0  0  0  0  0  0  0  0  0  0  0  0
    7.7283   -3.6492    1.7089 H   0  0  0  0  0  0  0  0  0  0  0  0
    7.2072   -5.9421    0.4615 H   0  0  0  0  0  0  0  0  0  0  0  0
    5.3769   -5.9992   -0.6573 H   0  0  0  0  0  0  0  0  0  0  0  0
    4.6677   -6.5634    0.7495 H   0  0  0  0  0  0  0  0  0  0  0  0
    3.5318   -4.8148   -0.7231 H   0  0  0  0  0  0  0  0  0  0  0  0
    4.3361   -2.5976   -0.6516 H   0  0  0  0  0  0  0  0  0  0  0  0
    5.5834   -3.6503   -1.0186 H   0  0  0  0  0  0  0  0  0  0  0  0
    7.6950   -6.4222    2.4114 H   0  0  0  0  0  0  0  0  0  0  0  0
    6.8619   -5.2805    3.2185 H   0  0  0  0  0  0  0  0  0  0  0  0
    5.2593   -7.7787    2.2176 H   0  0  0  0  0  0  0  0  0  0  0  0
    6.2764   -8.9706    3.5162 H   0  0  0  0  0  0  0  0  0  0  0  0
    5.1767   -4.8213    4.3177 H   0  0  0  0  0  0  0  0  0  0  0  0
    6.1550   -5.7898    5.3503 H   0  0  0  0  0  0  0  0  0  0  0  0
    4.5460   -5.3183    5.7824 H   0  0  0  0  0  0  0  0  0  0  0  0
  1  2  1  0
  1 41  1  0
  1 42  1  0
  1 43  1  0
  2 15  1  0
  2  3  1  0
  2  4  1  0
  3 44  1  0
  3 45  1  0
  3 46  1  0
  4  5  1  0
  4 47  1  0
  4 48  1  0
  5  6  1  0
  5 49  1  0
  5 50  1  0
  6  7  2  0
  6  8  1  0
  8 16  1  0
  8  9  1  0
  8 51  1  6
  9 10  1  0
  9 11  1  0
  9 52  1  1
 10 53  1  0
 11 39  1  0
 11 12  1  1
 11 13  1  0
 12 54  1  0
 12 55  1  0
 12 56  1  0
 13 14  1  0
 13 15  1  0
 13 57  1  1
 14 58  1  0
 15 16  1  0
 15 59  1  1
 16 39  1  0
 16 17  1  6
 17 22  1  0
 17 18  1  6
 17 19  1  0
 18 60  1  0
 18 61  1  0
 18 62  1  0
 19 20  1  0
 19 21  1  0
 19 63  1  6
 20 64  1  0
 21 22  1  0
 21 65  1  0
 21 66  1  0
 22 23  1  0
 22 67  1  1
 23 34  1  0
 23 24  1  0
 23 68  1  6
 24 25  1  0
 24 69  1  0
 24 70  1  0
 25 26  1  0
 25 71  1  0
 25 72  1  0
 26 27  1  0
 26 28  1  1
 26 29  1  0
 27 73  1  0
 27 74  1  0
 27 75  1  0
 28 76  1  0
 29 35  1  0
 29 30  1  1
 29 31  1  0
 30 77  1  0
 31 32  1  0
 31 78  1  0
 31 79  1  0
 32 33  1  0
 32 36  1  0
 32 80  1  6
 33 34  1  0
 33 81  1  0
 33 82  1  0
 34 35  1  0
 34 83  1  6
 35 84  1  0
 35 85  1  0
 36 37  1  0
 36 86  1  0
 36 87  1  0
 37 38  1  0
 37 39  1  0
 37 88  1  6
 38 89  1  0
 39 40  1  1
 40 90  1  0
 40 91  1  0
 40 92  1  0
M  END
>  <i_m_ct_stereo_status>  (125) 
1

>  <s_m_source_file>  (125) 
/var/tmp/pbs.5076255.sched01/tmpa1vw3d_c/4207j0axjo.sdf

>  <i_m_source_file_index>  (125) 
34

>  <i_lp_mmshare_version>  (125) 
48012

>  <i_f3d_flags>  (125) 
0

>  <s_epik_input>  (125) 
W0NAQF0xMjNbQ0hdNEMoPU8pW0NIMl1bQ0gyXUMoW0NIM10pKFtDSDNdKVtDQEhdMVtDQEhdKFtPSF0pW0NAQF0oW0NIM10pKFtDQEBIXTRbT0hdKVtDQEBdMyhbQ0gzXSlbQ0BIXShbT0hdKVtDSDJdW0NAQEhdNVtDSDJdW0NAQF02KFtPSF0pW0NAXShbQ0gzXSkoW09IXSlbQ0gyXVtDSDJdW0NAQEhdKFtDQEhdKFtDSDJdNSlbQ0gyXTYpW0NAQEhdN1tDQF0yKFtDSDNdKVtDQEBIXShbT0hdKVtDSDJdNw==

>  <s_epik_cmdline>  (125) 
J2VwaWtfcHl0aG9uJywgJy1waHQnLCAnMi4wJywgJy1waCcsICc3LjAnLCAnLXRuJywgJzgnLCAnLW1hJywgJzIwMCcsICctaW1hZScsICc8aW5maWxlLm1hZT4nLCAnLW9tYWUnLCAnPG91dGZpbGUubWFlPic=

>  <r_lp_tautomer_probability>  (125) 
1

>  <r_epik_Ionization_Penalty>  (125) 
6.27305e-06

>  <r_epik_Ionization_Penalty_Charging>  (125) 
0

>  <r_epik_Ionization_Penalty_Neutral>  (125) 
6.27305e-06

>  <r_epik_State_Penalty>  (125) 
-0

>  <r_epik_Charging_Adjusted_Penalty>  (125) 
0

>  <i_epik_Tot_Q>  (125) 
0

>  <i_epik_Tot_abs_Q>  (125) 
0

>  <s_lp_Force_Field>  (125) 
OPLS3e

>  <r_lp_Energy>  (125) 
294.322

>  <b_lp_Chiralities_Consistent>  (125) 
1

>  <s_lp_Variant>  (125) 
42:0-1

>  <s_i_glide_gridfile>  (125) 
pfpi4k_grid

>  <i_i_glide_lignum>  (125) 
34

>  <i_i_glide_rotatable_bonds>  (125) 
6

>  <r_i_docking_score>  (125) 
-3.14998

>  <r_i_glide_ligand_efficiency>  (125) 
-0.0787496

>  <r_i_glide_ligand_efficiency_sa>  (125) 
-0.26932

>  <r_i_glide_ligand_efficiency_ln>  (125) 
-0.671799

>  <r_i_glide_gscore>  (125) 
-3.14998

>  <r_i_glide_lipo>  (125) 
-0.641132

>  <r_i_glide_hbond>  (125) 
-0.149882

>  <r_i_glide_metal>  (125) 
-0

>  <r_i_glide_rewards>  (125) 
-0.5

>  <r_i_glide_evdw>  (125) 
-23.1327

>  <r_i_glide_ecoul>  (125) 
-4.63865

>  <r_i_glide_erotb>  (125) 
0

>  <r_i_glide_esite>  (125) 
-0.00653671

>  <r_i_glide_emodel>  (125) 
-37.1275

>  <r_i_glide_energy>  (125) 
-27.7714

>  <r_i_glide_einternal>  (125) 
1.87958

>  <r_i_glide_intrahb_reward>  (125) 
-0.5

>  <i_i_glide_confnum>  (125) 
2

>  <i_i_glide_posenum>  (125) 
5

>  <r_i_glide_eff_state_penalty>  (125) 
0

>  <ligand_id>  (125) 
42

>  <original_smiles>  (125) 
CC1(C)CCC(=O)C2C(O)C3(C)C(O)C1C21C2(C)C(O)CC2C2CCC(C)(O)C4(O)CC(CC2C4)CC(O)C31C

>  <smiles>  (125) 
[H]OC1([H])C2([H])C(=O)C([H])([H])C([H])([H])C(C([H])([H])[H])(C([H])([H])[H])C3([H])C([H])(O[H])C1(C([H])([H])[H])C1(C([H])([H])[H])C([H])(O[H])C([H])([H])C4([H])C([H])([H])C5([H])C([H])([H])C(O[H])(C4([H])[H])C(O[H])(C([H])([H])[H])C([H])([H])C([H])([H])C5([H])C4([H])C([H])([H])C([H])(O[H])C4(C([H])([H])[H])C231

$$$$
42:0:1
     RDKit          3D

 92 98  0  0  1  0  0  0  0  0999 V2000
    0.3947   -6.3583    6.5606 C   0  0  0  0  0  0  0  0  0  0  0  0
    1.3595   -7.5743    6.4104 C   0  0  0  0  0  0  0  0  0  0  0  0
    1.5838   -7.8287    7.9402 C   0  0  0  0  0  0  0  0  0  0  0  0
    0.6139   -8.9052    5.9699 C   0  0  0  0  0  0  0  0  0  0  0  0
    0.4337   -9.4025    4.5029 C   0  0  0  0  0  0  0  0  0  0  0  0
    1.6988   -9.6295    3.6542 C   0  0  0  0  0  0  0  0  0  0  0  0
    1.6734  -10.3449    2.6604 O   0  0  0  0  0  0  0  0  0  0  0  0
    2.9849   -8.9066    4.0481 C   0  0  1  0  0  0  0  0  0  0  0  0
    4.2551   -9.5928    4.5056 C   0  0  1  0  0  0  0  0  0  0  0  0
    4.9317  -10.1838    3.4205 O   0  0  0  0  0  0  0  0  0  0  0  0
    4.9474   -8.3840    5.2163 C   0  0  2  0  0  0  0  0  0  0  0  0
    6.3274   -8.7819    5.8260 C   0  0  0  0  0  0  0  0  0  0  0  0
    3.9848   -7.9613    6.3749 C   0  0  1  0  0  0  0  0  0  0  0  0
    4.5908   -7.2327    7.4263 O   0  0  0  0  0  0  0  0  0  0  0  0
    2.7751   -7.1736    5.7150 C   0  0  1  0  0  0  0  0  0  0  0  0
    3.1639   -7.3352    4.1472 C   0  0  2  0  0  0  0  0  0  0  0  0
    2.3780   -6.4955    2.9495 C   0  0  1  0  0  0  0  0  0  0  0  0
    2.3289   -7.3531    1.6679 C   0  0  0  0  0  0  0  0  0  0  0  0
    0.9404   -5.9118    3.0634 C   0  0  1  0  0  0  0  0  0  0  0  0
   -0.1393   -6.6284    3.5926 O   0  0  0  0  0  0  0  0  0  0  0  0
    1.5061   -4.6594    3.6857 C   0  0  0  0  0  0  0  0  0  0  0  0
    2.7186   -4.9432    2.7940 C   0  0  2  0  0  0  0  0  0  0  0  0
    2.7967   -4.1190    1.4402 C   0  0  1  0  0  0  0  0  0  0  0  0
    2.6499   -2.5213    1.5767 C   0  0  0  0  0  0  0  0  0  0  0  0
    3.8079   -1.5195    2.0373 C   0  0  0  0  0  0  0  0  0  0  0  0
    5.2728   -1.5631    1.4048 C   0  0  1  0  0  0  0  0  0  0  0  0
    5.4750   -0.5612    0.2554 C   0  0  0  0  0  0  0  0  0  0  0  0
    6.1493   -1.0565    2.3907 O   0  0  0  0  0  0  0  0  0  0  0  0
    5.5499   -3.0513    1.0619 C   0  0  2  0  0  0  0  0  0  0  0  0
    5.3354   -3.5488    2.3730 O   0  0  0  0  0  0  0  0  0  0  0  0
    6.7898   -3.9260    0.7901 C   0  0  0  0  0  0  0  0  0  0  0  0
    6.2917   -5.4499    0.8919 C   0  0  2  0  0  0  0  0  0  0  0  0
    4.8507   -5.7254    0.3166 C   0  0  0  0  0  0  0  0  0  0  0  0
    3.8001   -4.5713    0.2967 C   0  0  2  0  0  0  0  0  0  0  0  0
    4.6149   -3.4024   -0.1128 C   0  0  0  0  0  0  0  0  0  0  0  0
    6.6134   -6.1635    2.2618 C   0  0  0  0  0  0  0  0  0  0  0  0
    5.7207   -7.3505    2.8534 C   0  0  1  0  0  0  0  0  0  0  0  0
    6.7438   -8.2961    3.0585 O   0  0  0  0  0  0  0  0  0  0  0  0
    4.8179   -7.1792    4.1996 C   0  0  2  0  0  0  0  0  0  0  0  0
    5.3561   -5.8814    4.8979 C   0  0  0  0  0  0  0  0  0  0  0  0
   -0.5634   -6.6554    6.9852 H   0  0  0  0  0  0  0  0  0  0  0  0
    0.1609   -5.7815    5.6911 H   0  0  0  0  0  0  0  0  0  0  0  0
    0.8067   -5.6164    7.2446 H   0  0  0  0  0  0  0  0  0  0  0  0
    2.1023   -8.7565    8.1787 H   0  0  0  0  0  0  0  0  0  0  0  0
    0.6360   -7.9157    8.4746 H   0  0  0  0  0  0  0  0  0  0  0  0
    2.1371   -7.0204    8.4212 H   0  0  0  0  0  0  0  0  0  0  0  0
    1.0946   -9.7465    6.4751 H   0  0  0  0  0  0  0  0  0  0  0  0
   -0.3824   -8.9018    6.4121 H   0  0  0  0  0  0  0  0  0  0  0  0
   -0.0188  -10.3872    4.5749 H   0  0  0  0  0  0  0  0  0  0  0  0
   -0.3138   -8.8516    3.9446 H   0  0  0  0  0  0  0  0  0  0  0  0
    2.6238   -9.1787    5.0088 H   0  0  0  0  0  0  0  0  0  0  0  0
    4.0703  -10.4117    5.2184 H   0  0  0  0  0  0  0  0  0  0  0  0
    4.3726  -10.8501    3.0374 H   0  0  0  0  0  0  0  0  0  0  0  0
    6.9501   -7.9226    6.0648 H   0  0  0  0  0  0  0  0  0  0  0  0
    6.9085   -9.4366    5.1830 H   0  0  0  0  0  0  0  0  0  0  0  0
    6.1921   -9.3487    6.7474 H   0  0  0  0  0  0  0  0  0  0  0  0
    3.6672   -8.8957    6.8405 H   0  0  0  0  0  0  0  0  0  0  0  0
    5.2404   -7.7861    7.8399 H   0  0  0  0  0  0  0  0  0  0  0  0
    2.8917   -6.1229    5.9542 H   0  0  0  0  0  0  0  0  0  0  0  0
    2.2970   -6.7373    0.7745 H   0  0  0  0  0  0  0  0  0  0  0  0
    1.3978   -7.9156    1.5959 H   0  0  0  0  0  0  0  0  0  0  0  0
    3.1267   -8.0835    1.5552 H   0  0  0  0  0  0  0  0  0  0  0  0
    0.6045   -5.6417    2.0563 H   0  0  0  0  0  0  0  0  0  0  0  0
    0.1748   -6.9961    4.4159 H   0  0  0  0  0  0  0  0  0  0  0  0
    0.8979   -3.7924    3.4468 H   0  0  0  0  0  0  0  0  0  0  0  0
    1.7479   -4.7206    4.7517 H   0  0  0  0  0  0  0  0  0  0  0  0
    3.5245   -4.7214    3.4410 H   0  0  0  0  0  0  0  0  0  0  0  0
    1.8586   -4.3429    0.9516 H   0  0  0  0  0  0  0  0  0  0  0  0
    2.2667   -2.1528    0.6214 H   0  0  0  0  0  0  0  0  0  0  0  0
    1.8091   -2.3077    2.2258 H   0  0  0  0  0  0  0  0  0  0  0  0
    3.4272   -0.5097    1.9240 H   0  0  0  0  0  0  0  0  0  0  0  0
    3.8874   -1.6282    3.1235 H   0  0  0  0  0  0  0  0  0  0  0  0
    4.7262   -0.6307   -0.5260 H   0  0  0  0  0  0  0  0  0  0  0  0
    6.4534   -0.6952   -0.1943 H   0  0  0  0  0  0  0  0  0  0  0  0
    5.4228    0.4593    0.6298 H   0  0  0  0  0  0  0  0  0  0  0  0
    6.9074   -0.6588    1.9782 H   0  0  0  0  0  0  0  0  0  0  0  0
    4.4847   -3.2240    2.6444 H   0  0  0  0  0  0  0  0  0  0  0  0
    7.2112   -3.7163   -0.2080 H   0  0  0  0  0  0  0  0  0  0  0  0
    7.5848   -3.7476    1.5111 H   0  0  0  0  0  0  0  0  0  0  0  0
    6.9328   -5.9856    0.2089 H   0  0  0  0  0  0  0  0  0  0  0  0
    4.9970   -6.0185   -0.7336 H   0  0  0  0  0  0  0  0  0  0  0  0
    4.4365   -6.6037    0.7393 H   0  0  0  0  0  0  0  0  0  0  0  0
    3.1575   -4.8097   -0.5458 H   0  0  0  0  0  0  0  0  0  0  0  0
    3.9865   -2.6000   -0.4853 H   0  0  0  0  0  0  0  0  0  0  0  0
    5.1825   -3.6453   -1.0150 H   0  0  0  0  0  0  0  0  0  0  0  0
    7.6262   -6.5412    2.0750 H   0  0  0  0  0  0  0  0  0  0  0  0
    6.8766   -5.4189    2.9939 H   0  0  0  0  0  0  0  0  0  0  0  0
    5.1645   -7.8795    2.0935 H   0  0  0  0  0  0  0  0  0  0  0  0
    6.3027   -9.1277    3.2370 H   0  0  0  0  0  0  0  0  0  0  0  0
    5.3342   -5.0007    4.2851 H   0  0  0  0  0  0  0  0  0  0  0  0
    6.3992   -6.0032    5.1772 H   0  0  0  0  0  0  0  0  0  0  0  0
    4.8554   -5.5400    5.7907 H   0  0  0  0  0  0  0  0  0  0  0  0
  1  2  1  0
  1 41  1  0
  1 42  1  0
  1 43  1  0
  2 15  1  0
  2  3  1  0
  2  4  1  0
  3 44  1  0
  3 45  1  0
  3 46  1  0
  4  5  1  0
  4 47  1  0
  4 48  1  0
  5  6  1  0
  5 49  1  0
  5 50  1  0
  6  7  2  0
  6  8  1  0
  8 16  1  0
  8  9  1  0
  8 51  1  6
  9 10  1  0
  9 11  1  0
  9 52  1  1
 10 53  1  0
 11 39  1  0
 11 12  1  1
 11 13  1  0
 12 54  1  0
 12 55  1  0
 12 56  1  0
 13 14  1  0
 13 15  1  0
 13 57  1  1
 14 58  1  0
 15 16  1  0
 15 59  1  1
 16 39  1  0
 16 17  1  6
 17 22  1  0
 17 18  1  6
 17 19  1  0
 18 60  1  0
 18 61  1  0
 18 62  1  0
 19 20  1  0
 19 21  1  0
 19 63  1  6
 20 64  1  0
 21 22  1  0
 21 65  1  0
 21 66  1  0
 22 23  1  0
 22 67  1  1
 23 34  1  0
 23 24  1  0
 23 68  1  6
 24 25  1  0
 24 69  1  0
 24 70  1  0
 25 26  1  0
 25 71  1  0
 25 72  1  0
 26 27  1  0
 26 28  1  1
 26 29  1  0
 27 73  1  0
 27 74  1  0
 27 75  1  0
 28 76  1  0
 29 35  1  0
 29 30  1  1
 29 31  1  0
 30 77  1  0
 31 32  1  0
 31 78  1  0
 31 79  1  0
 32 33  1  0
 32 36  1  0
 32 80  1  6
 33 34  1  0
 33 81  1  0
 33 82  1  0
 34 35  1  0
 34 83  1  6
 35 84  1  0
 35 85  1  0
 36 37  1  0
 36 86  1  0
 36 87  1  0
 37 38  1  0
 37 39  1  0
 37 88  1  6
 38 89  1  0
 39 40  1  1
 40 90  1  0
 40 91  1  0
 40 92  1  0
M  END
>  <i_m_ct_stereo_status>  (126) 
1

>  <s_m_source_file>  (126) 
/var/tmp/pbs.5076255.sched01/tmpa1vw3d_c/4207j0axjo.sdf

>  <i_m_source_file_index>  (126) 
34

>  <i_lp_mmshare_version>  (126) 
48012

>  <i_f3d_flags>  (126) 
0

>  <s_epik_input>  (126) 
W0NAQF0xMjNbQ0hdNEMoPU8pW0NIMl1bQ0gyXUMoW0NIM10pKFtDSDNdKVtDQEhdMVtDQEhdKFtPSF0pW0NAQF0oW0NIM10pKFtDQEBIXTRbT0hdKVtDQEBdMyhbQ0gzXSlbQ0BIXShbT0hdKVtDSDJdW0NAQEhdNVtDSDJdW0NAQF02KFtPSF0pW0NAXShbQ0gzXSkoW09IXSlbQ0gyXVtDSDJdW0NAQEhdKFtDQEhdKFtDSDJdNSlbQ0gyXTYpW0NAQEhdN1tDQF0yKFtDSDNdKVtDQEBIXShbT0hdKVtDSDJdNw==

>  <s_epik_cmdline>  (126) 
J2VwaWtfcHl0aG9uJywgJy1waHQnLCAnMi4wJywgJy1waCcsICc3LjAnLCAnLXRuJywgJzgnLCAnLW1hJywgJzIwMCcsICctaW1hZScsICc8aW5maWxlLm1hZT4nLCAnLW9tYWUnLCAnPG91dGZpbGUubWFlPic=

>  <r_lp_tautomer_probability>  (126) 
1

>  <r_epik_Ionization_Penalty>  (126) 
6.27305e-06

>  <r_epik_Ionization_Penalty_Charging>  (126) 
0

>  <r_epik_Ionization_Penalty_Neutral>  (126) 
6.27305e-06

>  <r_epik_State_Penalty>  (126) 
-0

>  <r_epik_Charging_Adjusted_Penalty>  (126) 
0

>  <i_epik_Tot_Q>  (126) 
0

>  <i_epik_Tot_abs_Q>  (126) 
0

>  <s_lp_Force_Field>  (126) 
OPLS3e

>  <r_lp_Energy>  (126) 
294.322

>  <b_lp_Chiralities_Consistent>  (126) 
1

>  <s_lp_Variant>  (126) 
42:0-1

>  <s_i_glide_gridfile>  (126) 
pfpi4k_grid

>  <i_i_glide_lignum>  (126) 
34

>  <i_i_glide_rotatable_bonds>  (126) 
6

>  <r_i_docking_score>  (126) 
-3.0341

>  <r_i_glide_ligand_efficiency>  (126) 
-0.0758524

>  <r_i_glide_ligand_efficiency_sa>  (126) 
-0.259412

>  <r_i_glide_ligand_efficiency_ln>  (126) 
-0.647083

>  <r_i_glide_gscore>  (126) 
-3.0341

>  <r_i_glide_lipo>  (126) 
-0.649698

>  <r_i_glide_hbond>  (126) 
-0.046404

>  <r_i_glide_metal>  (126) 
-0

>  <r_i_glide_rewards>  (126) 
-0.5

>  <r_i_glide_evdw>  (126) 
-24.8354

>  <r_i_glide_ecoul>  (126) 
-3.93457

>  <r_i_glide_erotb>  (126) 
0

>  <r_i_glide_esite>  (126) 
-0.00603926

>  <r_i_glide_emodel>  (126) 
-37.9931

>  <r_i_glide_energy>  (126) 
-28.77

>  <r_i_glide_einternal>  (126) 
1.78419

>  <r_i_glide_intrahb_reward>  (126) 
-0.5

>  <i_i_glide_confnum>  (126) 
1

>  <i_i_glide_posenum>  (126) 
1

>  <r_i_glide_eff_state_penalty>  (126) 
0

>  <ligand_id>  (126) 
42

>  <original_smiles>  (126) 
CC1(C)CCC(=O)C2C(O)C3(C)C(O)C1C21C2(C)C(O)CC2C2CCC(C)(O)C4(O)CC(CC2C4)CC(O)C31C

>  <smiles>  (126) 
[H]OC1([H])C2([H])C(=O)C([H])([H])C([H])([H])C(C([H])([H])[H])(C([H])([H])[H])C3([H])C([H])(O[H])C1(C([H])([H])[H])C1(C([H])([H])[H])C([H])(O[H])C([H])([H])C4([H])C([H])([H])C5([H])C([H])([H])C(O[H])(C4([H])[H])C(O[H])(C([H])([H])[H])C([H])([H])C([H])([H])C5([H])C4([H])C([H])([H])C([H])(O[H])C4(C([H])([H])[H])C231

$$$$
42:0:2
     RDKit          3D

 92 98  0  0  1  0  0  0  0  0999 V2000
    0.3757   -6.2208    6.5795 C   0  0  0  0  0  0  0  0  0  0  0  0
    1.3280   -7.4572    6.5035 C   0  0  0  0  0  0  0  0  0  0  0  0
    1.5497   -7.6127    8.0453 C   0  0  0  0  0  0  0  0  0  0  0  0
    0.5687   -8.8039    6.1456 C   0  0  0  0  0  0  0  0  0  0  0  0
    0.3821   -9.3893    4.7081 C   0  0  0  0  0  0  0  0  0  0  0  0
    1.6421   -9.6865    3.8821 C   0  0  0  0  0  0  0  0  0  0  0  0
    1.6099  -10.4852    2.9384 O   0  0  0  0  0  0  0  0  0  0  0  0
    2.9327   -8.9503    4.2234 C   0  0  1  0  0  0  0  0  0  0  0  0
    4.1988   -9.6194    4.7352 C   0  0  1  0  0  0  0  0  0  0  0  0
    4.8714  -10.2830    3.6776 O   0  0  0  0  0  0  0  0  0  0  0  0
    4.9058   -8.3712    5.3606 C   0  0  2  0  0  0  0  0  0  0  0  0
    6.2781   -8.7446    6.0011 C   0  0  0  0  0  0  0  0  0  0  0  0
    3.9444   -7.8697    6.4944 C   0  0  1  0  0  0  0  0  0  0  0  0
    4.5648   -7.0802    7.5029 O   0  0  0  0  0  0  0  0  0  0  0  0
    2.7440   -7.1099    5.7878 C   0  0  1  0  0  0  0  0  0  0  0  0
    3.1228   -7.3832    4.2266 C   0  0  2  0  0  0  0  0  0  0  0  0
    2.3538   -6.6112    2.9861 C   0  0  1  0  0  0  0  0  0  0  0  0
    2.2913   -7.5473    1.7569 C   0  0  0  0  0  0  0  0  0  0  0  0
    0.9137   -6.0054    3.0476 C   0  0  1  0  0  0  0  0  0  0  0  0
   -0.1709   -6.6625    3.6358 O   0  0  0  0  0  0  0  0  0  0  0  0
    1.4972   -4.7210    3.6062 C   0  0  0  0  0  0  0  0  0  0  0  0
    2.7020   -5.0675    2.7126 C   0  0  2  0  0  0  0  0  0  0  0  0
    2.7908   -4.3324    1.3323 C   0  0  1  0  0  0  0  0  0  0  0  0
    2.6528   -2.7261    1.3526 C   0  0  0  0  0  0  0  0  0  0  0  0
    3.8182   -1.7101    1.7537 C   0  0  0  0  0  0  0  0  0  0  0  0
    5.2751   -1.8152    1.1192 C   0  0  1  0  0  0  0  0  0  0  0  0
    5.5001   -0.8956   -0.0932 C   0  0  0  0  0  0  0  0  0  0  0  0
    6.2121   -1.2861    2.0494 O   0  0  0  0  0  0  0  0  0  0  0  0
    5.5375   -3.3197    0.8831 C   0  0  2  0  0  0  0  0  0  0  0  0
    5.3181   -3.7418    2.2098 O   0  0  0  0  0  0  0  0  0  0  0  0
    6.7736   -4.2184    0.6728 C   0  0  0  0  0  0  0  0  0  0  0  0
    6.2651   -5.7204    0.8846 C   0  0  2  0  0  0  0  0  0  0  0  0
    4.8285   -6.0268    0.3133 C   0  0  0  0  0  0  0  0  0  0  0  0
    3.7873   -4.8631    0.2119 C   0  0  2  0  0  0  0  0  0  0  0  0
    4.6089   -3.7364   -0.2798 C   0  0  0  0  0  0  0  0  0  0  0  0
    6.5831   -6.3499    2.2848 C   0  0  0  0  0  0  0  0  0  0  0  0
    5.6815   -7.4965    2.9429 C   0  0  1  0  0  0  0  0  0  0  0  0
    6.6990   -8.4362    3.2191 O   0  0  0  0  0  0  0  0  0  0  0  0
    4.7761   -7.2350    4.2769 C   0  0  2  0  0  0  0  0  0  0  0  0
    5.3326   -5.8973    4.8849 C   0  0  0  0  0  0  0  0  0  0  0  0
   -0.5777   -6.4821    7.0285 H   0  0  0  0  0  0  0  0  0  0  0  0
    0.1436   -5.7012    5.6717 H   0  0  0  0  0  0  0  0  0  0  0  0
    0.8033   -5.4384    7.2042 H   0  0  0  0  0  0  0  0  0  0  0  0
    2.0599   -8.5281    8.3469 H   0  0  0  0  0  0  0  0  0  0  0  0
    0.6003   -7.6538    8.5860 H   0  0  0  0  0  0  0  0  0  0  0  0
    2.1116   -6.7792    8.4725 H   0  0  0  0  0  0  0  0  0  0  0  0
    1.0432   -9.6167    6.7034 H   0  0  0  0  0  0  0  0  0  0  0  0
   -0.4263   -8.7639    6.5894 H   0  0  0  0  0  0  0  0  0  0  0  0
   -0.0834  -10.3639    4.8505 H   0  0  0  0  0  0  0  0  0  0  0  0
   -0.3582   -8.8636    4.1201 H   0  0  0  0  0  0  0  0  0  0  0  0
    2.5690   -9.1628    5.2053 H   0  0  0  0  0  0  0  0  0  0  0  0
    4.0068  -10.3888    5.4864 H   0  0  0  0  0  0  0  0  0  0  0  0
    4.2888  -10.9388    3.3260 H   0  0  0  0  0  0  0  0  0  0  0  0
    6.9102   -7.8775    6.1821 H   0  0  0  0  0  0  0  0  0  0  0  0
    6.8545   -9.4472    5.3981 H   0  0  0  0  0  0  0  0  0  0  0  0
    6.1385   -9.2497    6.9517 H   0  0  0  0  0  0  0  0  0  0  0  0
    3.6204   -8.7652    7.0134 H   0  0  0  0  0  0  0  0  0  0  0  0
    5.1669   -7.6198    7.9737 H   0  0  0  0  0  0  0  0  0  0  0  0
    2.8736   -6.0504    5.9533 H   0  0  0  0  0  0  0  0  0  0  0  0
    2.2637   -6.9861    0.8309 H   0  0  0  0  0  0  0  0  0  0  0  0
    1.3542   -8.1056    1.7240 H   0  0  0  0  0  0  0  0  0  0  0  0
    3.0817   -8.2902    1.6922 H   0  0  0  0  0  0  0  0  0  0  0  0
    0.5756   -5.7955    2.0322 H   0  0  0  0  0  0  0  0  0  0  0  0
    0.1422   -7.0051    4.4526 H   0  0  0  0  0  0  0  0  0  0  0  0
    0.8982   -3.8574    3.3145 H   0  0  0  0  0  0  0  0  0  0  0  0
    1.7385   -4.7179    4.6571 H   0  0  0  0  0  0  0  0  0  0  0  0
    3.5217   -4.8002    3.3666 H   0  0  0  0  0  0  0  0  0  0  0  0
    1.8537   -4.5855    0.8420 H   0  0  0  0  0  0  0  0  0  0  0  0
    2.2736   -2.4180    0.3830 H   0  0  0  0  0  0  0  0  0  0  0  0
    1.8150   -2.4661    1.9950 H   0  0  0  0  0  0  0  0  0  0  0  0
    3.4471   -0.7000    1.5770 H   0  0  0  0  0  0  0  0  0  0  0  0
    3.9080   -1.7650    2.8367 H   0  0  0  0  0  0  0  0  0  0  0  0
    4.7479   -1.0060   -0.8678 H   0  0  0  0  0  0  0  0  0  0  0  0
    6.4768   -1.0831   -0.5301 H   0  0  0  0  0  0  0  0  0  0  0  0
    5.4622    0.1415    0.2260 H   0  0  0  0  0  0  0  0  0  0  0  0
    6.1100   -0.3645    2.1015 H   0  0  0  0  0  0  0  0  0  0  0  0
    5.2913   -4.6817    2.1872 H   0  0  0  0  0  0  0  0  0  0  0  0
    7.1908   -4.0800   -0.3212 H   0  0  0  0  0  0  0  0  0  0  0  0
    7.5848   -3.9829    1.3717 H   0  0  0  0  0  0  0  0  0  0  0  0
    6.9332   -6.2953    0.2457 H   0  0  0  0  0  0  0  0  0  0  0  0
    4.9771   -6.3732   -0.7092 H   0  0  0  0  0  0  0  0  0  0  0  0
    4.4003   -6.8812    0.7787 H   0  0  0  0  0  0  0  0  0  0  0  0
    3.1417   -5.1396   -0.6181 H   0  0  0  0  0  0  0  0  0  0  0  0
    3.9871   -2.9556   -0.6961 H   0  0  0  0  0  0  0  0  0  0  0  0
    5.1770   -4.0417   -1.1592 H   0  0  0  0  0  0  0  0  0  0  0  0
    7.5845   -6.7551    2.1128 H   0  0  0  0  0  0  0  0  0  0  0  0
    6.8741   -5.5720    2.9788 H   0  0  0  0  0  0  0  0  0  0  0  0
    5.1271   -8.0676    2.2136 H   0  0  0  0  0  0  0  0  0  0  0  0
    6.2570   -9.2416    3.4323 H   0  0  0  0  0  0  0  0  0  0  0  0
    5.3144   -5.0549    4.2215 H   0  0  0  0  0  0  0  0  0  0  0  0
    6.3795   -6.0128    5.1704 H   0  0  0  0  0  0  0  0  0  0  0  0
    4.8384   -5.4975    5.7578 H   0  0  0  0  0  0  0  0  0  0  0  0
  1  2  1  0
  1 41  1  0
  1 42  1  0
  1 43  1  0
  2 15  1  0
  2  3  1  0
  2  4  1  0
  3 44  1  0
  3 45  1  0
  3 46  1  0
  4  5  1  0
  4 47  1  0
  4 48  1  0
  5  6  1  0
  5 49  1  0
  5 50  1  0
  6  7  2  0
  6  8  1  0
  8 16  1  0
  8  9  1  0
  8 51  1  6
  9 10  1  0
  9 11  1  0
  9 52  1  1
 10 53  1  0
 11 39  1  0
 11 12  1  1
 11 13  1  0
 12 54  1  0
 12 55  1  0
 12 56  1  0
 13 14  1  0
 13 15  1  0
 13 57  1  1
 14 58  1  0
 15 16  1  0
 15 59  1  6
 16 39  1  0
 16 17  1  6
 17 22  1  0
 17 18  1  6
 17 19  1  0
 18 60  1  0
 18 61  1  0
 18 62  1  0
 19 20  1  0
 19 21  1  0
 19 63  1  6
 20 64  1  0
 21 22  1  0
 21 65  1  0
 21 66  1  0
 22 23  1  0
 22 67  1  1
 23 34  1  0
 23 24  1  0
 23 68  1  6
 24 25  1  0
 24 69  1  0
 24 70  1  0
 25 26  1  0
 25 71  1  0
 25 72  1  0
 26 27  1  0
 26 28  1  1
 26 29  1  0
 27 73  1  0
 27 74  1  0
 27 75  1  0
 28 76  1  0
 29 35  1  0
 29 30  1  1
 29 31  1  0
 30 77  1  0
 31 32  1  0
 31 78  1  0
 31 79  1  0
 32 33  1  0
 32 36  1  0
 32 80  1  6
 33 34  1  0
 33 81  1  0
 33 82  1  0
 34 35  1  0
 34 83  1  6
 35 84  1  0
 35 85  1  0
 36 37  1  0
 36 86  1  0
 36 87  1  0
 37 38  1  0
 37 39  1  0
 37 88  1  6
 38 89  1  0
 39 40  1  1
 40 90  1  0
 40 91  1  0
 40 92  1  0
M  END
>  <i_m_ct_stereo_status>  (127) 
1

>  <s_m_source_file>  (127) 
/var/tmp/pbs.5076255.sched01/tmpa1vw3d_c/4207j0axjo.sdf

>  <i_m_source_file_index>  (127) 
34

>  <i_lp_mmshare_version>  (127) 
48012

>  <i_f3d_flags>  (127) 
0

>  <s_epik_input>  (127) 
W0NAQF0xMjNbQ0hdNEMoPU8pW0NIMl1bQ0gyXUMoW0NIM10pKFtDSDNdKVtDQEhdMVtDQEhdKFtPSF0pW0NAQF0oW0NIM10pKFtDQEBIXTRbT0hdKVtDQEBdMyhbQ0gzXSlbQ0BIXShbT0hdKVtDSDJdW0NAQEhdNVtDSDJdW0NAQF02KFtPSF0pW0NAXShbQ0gzXSkoW09IXSlbQ0gyXVtDSDJdW0NAQEhdKFtDQEhdKFtDSDJdNSlbQ0gyXTYpW0NAQEhdN1tDQF0yKFtDSDNdKVtDQEBIXShbT0hdKVtDSDJdNw==

>  <s_epik_cmdline>  (127) 
J2VwaWtfcHl0aG9uJywgJy1waHQnLCAnMi4wJywgJy1waCcsICc3LjAnLCAnLXRuJywgJzgnLCAnLW1hJywgJzIwMCcsICctaW1hZScsICc8aW5maWxlLm1hZT4nLCAnLW9tYWUnLCAnPG91dGZpbGUubWFlPic=

>  <r_lp_tautomer_probability>  (127) 
1

>  <r_epik_Ionization_Penalty>  (127) 
6.27305e-06

>  <r_epik_Ionization_Penalty_Charging>  (127) 
0

>  <r_epik_Ionization_Penalty_Neutral>  (127) 
6.27305e-06

>  <r_epik_State_Penalty>  (127) 
-0

>  <r_epik_Charging_Adjusted_Penalty>  (127) 
0

>  <i_epik_Tot_Q>  (127) 
0

>  <i_epik_Tot_abs_Q>  (127) 
0

>  <s_lp_Force_Field>  (127) 
OPLS3e

>  <r_lp_Energy>  (127) 
294.322

>  <b_lp_Chiralities_Consistent>  (127) 
1

>  <s_lp_Variant>  (127) 
42:0-1

>  <s_i_glide_gridfile>  (127) 
pfpi4k_grid

>  <i_i_glide_lignum>  (127) 
34

>  <i_i_glide_rotatable_bonds>  (127) 
6

>  <r_i_docking_score>  (127) 
-2.66056

>  <r_i_glide_ligand_efficiency>  (127) 
-0.0665141

>  <r_i_glide_ligand_efficiency_sa>  (127) 
-0.227475

>  <r_i_glide_ligand_efficiency_ln>  (127) 
-0.56742

>  <r_i_glide_gscore>  (127) 
-2.66056

>  <r_i_glide_lipo>  (127) 
-0.518835

>  <r_i_glide_hbond>  (127) 
-0.0380904

>  <r_i_glide_metal>  (127) 
-0

>  <r_i_glide_rewards>  (127) 
-0.5

>  <r_i_glide_evdw>  (127) 
-25.1077

>  <r_i_glide_ecoul>  (127) 
-2.25834

>  <r_i_glide_erotb>  (127) 
0

>  <r_i_glide_esite>  (127) 
-0.00950235

>  <r_i_glide_emodel>  (127) 
-36.2393

>  <r_i_glide_energy>  (127) 
-27.3661

>  <r_i_glide_einternal>  (127) 
1.42285

>  <r_i_glide_intrahb_reward>  (127) 
-0.5

>  <i_i_glide_confnum>  (127) 
2

>  <i_i_glide_posenum>  (127) 
17

>  <r_i_glide_eff_state_penalty>  (127) 
0

>  <ligand_id>  (127) 
42

>  <original_smiles>  (127) 
CC1(C)CCC(=O)C2C(O)C3(C)C(O)C1C21C2(C)C(O)CC2C2CCC(C)(O)C4(O)CC(CC2C4)CC(O)C31C

>  <smiles>  (127) 
[H]OC1([H])C2([H])C(=O)C([H])([H])C([H])([H])C(C([H])([H])[H])(C([H])([H])[H])C3([H])C([H])(O[H])C1(C([H])([H])[H])C1(C([H])([H])[H])C([H])(O[H])C([H])([H])C4([H])C([H])([H])C5([H])C([H])([H])C(O[H])(C4([H])[H])C(O[H])(C([H])([H])[H])C([H])([H])C([H])([H])C5([H])C4([H])C([H])([H])C([H])(O[H])C4(C([H])([H])[H])C231

$$$$
43:0:0
     RDKit          3D

 44 47  0  0  1  0  0  0  0  0999 V2000
   -0.9133    3.5153    9.9570 C   0  0  0  0  0  0  0  0  0  0  0  0
   -1.0033    3.3021    8.4273 C   0  0  2  0  0  0  0  0  0  0  0  0
   -2.4952    3.3333    8.0083 C   0  0  0  0  0  0  0  0  0  0  0  0
   -2.7497    2.9501    6.5391 C   0  0  0  0  0  0  0  0  0  0  0  0
   -1.4360    2.7277    5.7704 C   0  0  2  0  0  0  0  0  0  0  0  0
   -1.5072    2.5526    4.2419 C   0  0  1  0  0  0  0  0  0  0  0  0
   -2.4876    3.5308    3.5439 C   0  0  0  0  0  0  0  0  0  0  0  0
   -0.0301    2.7499    3.7021 C   0  0  1  0  0  0  0  0  0  0  0  0
    0.1804    4.0860    3.2882 O   0  0  0  0  0  0  0  0  0  0  0  0
    0.9260    2.3951    4.6792 O   0  0  0  0  0  0  0  0  0  0  0  0
    0.5658    1.2773    5.4307 C   0  0  1  0  0  0  0  0  0  0  0  0
    1.6113    0.6018    6.0292 O   0  0  0  0  0  0  0  0  0  0  0  0
    1.1744   -0.3135    7.0225 C   0  0  1  0  0  0  0  0  0  0  0  0
    2.0418   -1.5742    6.8701 C   0  0  0  0  0  0  0  0  0  0  0  0
    1.4923    0.3342    8.3810 C   0  0  0  0  0  0  0  0  0  0  0  0
    1.1309    1.8107    8.4149 C   0  0  0  0  0  0  0  0  0  0  0  0
   -0.3138    1.9898    7.9495 C   0  0  2  0  0  0  0  0  0  0  0  0
   -0.5907    1.6042    6.4308 C   0  0  1  0  0  0  0  0  0  0  0  0
   -1.2369    0.3459    6.5166 O   0  0  0  0  0  0  0  0  0  0  0  0
   -0.2122   -0.7589    6.9068 O   0  0  0  0  0  0  0  0  0  0  0  0
   -1.2185    2.6205   10.4982 H   0  0  0  0  0  0  0  0  0  0  0  0
   -1.5696    4.3197   10.2937 H   0  0  0  0  0  0  0  0  0  0  0  0
    0.0941    3.7743   10.2825 H   0  0  0  0  0  0  0  0  0  0  0  0
   -0.4959    4.1516    7.9655 H   0  0  0  0  0  0  0  0  0  0  0  0
   -3.0685    2.6614    8.6520 H   0  0  0  0  0  0  0  0  0  0  0  0
   -2.8935    4.3330    8.1906 H   0  0  0  0  0  0  0  0  0  0  0  0
   -3.3576    2.0449    6.5309 H   0  0  0  0  0  0  0  0  0  0  0  0
   -3.3545    3.7363    6.0879 H   0  0  0  0  0  0  0  0  0  0  0  0
   -0.8921    3.6690    5.8730 H   0  0  0  0  0  0  0  0  0  0  0  0
   -1.8196    1.5390    4.0120 H   0  0  0  0  0  0  0  0  0  0  0  0
   -2.3013    4.5471    3.8775 H   0  0  0  0  0  0  0  0  0  0  0  0
   -3.5249    3.3056    3.7700 H   0  0  0  0  0  0  0  0  0  0  0  0
   -2.3898    3.5205    2.4583 H   0  0  0  0  0  0  0  0  0  0  0  0
    0.1337    2.1197    2.8200 H   0  0  0  0  0  0  0  0  0  0  0  0
    0.2094    4.1351    2.3168 H   0  0  0  0  0  0  0  0  0  0  0  0
    0.2200    0.5331    4.7002 H   0  0  0  0  0  0  0  0  0  0  0  0
    1.8940   -2.0541    5.9017 H   0  0  0  0  0  0  0  0  0  0  0  0
    1.8069   -2.3048    7.6465 H   0  0  0  0  0  0  0  0  0  0  0  0
    3.1063   -1.3402    6.9577 H   0  0  0  0  0  0  0  0  0  0  0  0
    0.9694   -0.2076    9.1714 H   0  0  0  0  0  0  0  0  0  0  0  0
    2.5527    0.2577    8.6117 H   0  0  0  0  0  0  0  0  0  0  0  0
    1.2835    2.1277    9.4434 H   0  0  0  0  0  0  0  0  0  0  0  0
    1.8100    2.4006    7.8006 H   0  0  0  0  0  0  0  0  0  0  0  0
   -0.8653    1.2493    8.5327 H   0  0  0  0  0  0  0  0  0  0  0  0
  1  2  1  0
  1 21  1  0
  1 22  1  0
  1 23  1  0
  2 17  1  0
  2  3  1  0
  2 24  1  6
  3  4  1  0
  3 25  1  0
  3 26  1  0
  4  5  1  0
  4 27  1  0
  4 28  1  0
  5 18  1  0
  5  6  1  0
  5 29  1  6
  6  7  1  0
  6  8  1  0
  6 30  1  1
  7 31  1  0
  7 32  1  0
  7 33  1  0
  8  9  1  0
  8 10  1  0
  8 34  1  6
  9 35  1  0
 10 11  1  0
 11 18  1  0
 11 12  1  0
 11 36  1  6
 12 13  1  0
 13 20  1  0
 13 14  1  6
 13 15  1  0
 14 37  1  0
 14 38  1  0
 14 39  1  0
 15 16  1  0
 15 40  1  0
 15 41  1  0
 16 17  1  0
 16 42  1  0
 16 43  1  0
 17 18  1  0
 17 44  1  1
 18 19  1  1
 19 20  1  0
M  END
>  <i_m_ct_stereo_status>  (128) 
1

>  <s_m_source_file>  (128) 
/var/tmp/pbs.5076255.sched01/tmpa1vw3d_c/4207j0axjo.sdf

>  <i_m_source_file_index>  (128) 
36

>  <i_lp_mmshare_version>  (128) 
48012

>  <i_f3d_flags>  (128) 
0

>  <s_epik_input>  (128) 
W0NAXTEyM1tDQEBIXTRbQ0gyXVtDSDJdW0NAQEhdKFtDSDNdKVtDQEBIXTJbQ0gyXVtDSDJdW0NAQF0oW0NIM10pKE9PMylPW0NAQEhdMU9bQ0BIXShbT0hdKVtDQEBIXTRbQ0gzXQ==

>  <s_epik_cmdline>  (128) 
J2VwaWtfcHl0aG9uJywgJy1waHQnLCAnMi4wJywgJy1waCcsICc3LjAnLCAnLXRuJywgJzgnLCAnLW1hJywgJzIwMCcsICctaW1hZScsICc8aW5maWxlLm1hZT4nLCAnLW9tYWUnLCAnPG91dGZpbGUubWFlPic=

>  <r_lp_tautomer_probability>  (128) 
1

>  <r_epik_Ionization_Penalty>  (128) 
3.16671e-07

>  <r_epik_Ionization_Penalty_Charging>  (128) 
0

>  <r_epik_Ionization_Penalty_Neutral>  (128) 
3.16671e-07

>  <r_epik_State_Penalty>  (128) 
-0

>  <r_epik_Charging_Adjusted_Penalty>  (128) 
0

>  <i_epik_Tot_Q>  (128) 
0

>  <i_epik_Tot_abs_Q>  (128) 
0

>  <s_epik_Chemistry_Notes>  (128) 
This compound contains an acetal/aminal-like group ( X-CH(R)-Y where X, Y are N, S, or O) that may be acid/base labile, releasing an aldehyde.

>  <s_lp_Force_Field>  (128) 
OPLS3e

>  <r_lp_Energy>  (128) 
64.0424

>  <b_lp_Chiralities_Consistent>  (128) 
1

>  <s_lp_Variant>  (128) 
43:0-1

>  <s_i_glide_gridfile>  (128) 
pfpi4k_grid

>  <i_i_glide_lignum>  (128) 
36

>  <i_i_glide_rotatable_bonds>  (128) 
1

>  <r_i_docking_score>  (128) 
-3.82287

>  <r_i_glide_ligand_efficiency>  (128) 
-0.191143

>  <r_i_glide_ligand_efficiency_sa>  (128) 
-0.518843

>  <r_i_glide_ligand_efficiency_ln>  (128) 
-0.956737

>  <r_i_glide_gscore>  (128) 
-3.82287

>  <r_i_glide_lipo>  (128) 
-0.276067

>  <r_i_glide_hbond>  (128) 
-0.129736

>  <r_i_glide_metal>  (128) 
-0

>  <r_i_glide_rewards>  (128) 
-1.47035

>  <r_i_glide_evdw>  (128) 
-14.196

>  <r_i_glide_ecoul>  (128) 
-7.83689

>  <r_i_glide_erotb>  (128) 
0

>  <r_i_glide_esite>  (128) 
-0.0613752

>  <r_i_glide_emodel>  (128) 
-27.4505

>  <r_i_glide_energy>  (128) 
-22.0329

>  <r_i_glide_einternal>  (128) 
1.94626

>  <r_i_glide_intrahb_reward>  (128) 
-0

>  <i_i_glide_confnum>  (128) 
2

>  <i_i_glide_posenum>  (128) 
16

>  <r_i_glide_eff_state_penalty>  (128) 
0

>  <ligand_id>  (128) 
43

>  <original_smiles>  (128) 
CC1CCC2C(C)C(O)OC3OC4(C)CCC1C32OO4

>  <smiles>  (128) 
[H]OC1([H])OC2([H])OC3(C([H])([H])[H])OOC24C([H])(C([H])([H])C([H])([H])C([H])(C([H])([H])[H])C4([H])C([H])([H])C3([H])[H])C1([H])C([H])([H])[H]

$$$$
43:0:1
     RDKit          3D

 44 47  0  0  1  0  0  0  0  0999 V2000
    0.0950    1.7753    9.4299 C   0  0  0  0  0  0  0  0  0  0  0  0
   -0.1712    1.9749    7.9243 C   0  0  2  0  0  0  0  0  0  0  0  0
   -1.5179    2.7305    7.7501 C   0  0  0  0  0  0  0  0  0  0  0  0
   -2.0126    2.8433    6.2952 C   0  0  0  0  0  0  0  0  0  0  0  0
   -0.9797    2.2626    5.3122 C   0  0  2  0  0  0  0  0  0  0  0  0
   -1.2013    2.5037    3.8098 C   0  0  1  0  0  0  0  0  0  0  0  0
   -1.6661    3.9414    3.4761 C   0  0  0  0  0  0  0  0  0  0  0  0
    0.1707    2.1496    3.0975 C   0  0  1  0  0  0  0  0  0  0  0  0
    0.9401    3.3093    2.8788 O   0  0  0  0  0  0  0  0  0  0  0  0
    0.9076    1.2115    3.8390 O   0  0  0  0  0  0  0  0  0  0  0  0
    0.1221    0.2108    4.4099 C   0  0  1  0  0  0  0  0  0  0  0  0
    0.7770   -0.9670    4.7040 O   0  0  0  0  0  0  0  0  0  0  0  0
    0.0363   -1.8036    5.5808 C   0  0  1  0  0  0  0  0  0  0  0  0
    0.2285   -3.2383    5.0732 C   0  0  0  0  0  0  0  0  0  0  0  0
    0.6947   -1.6818    6.9635 C   0  0  0  0  0  0  0  0  0  0  0  0
    1.0521   -0.2454    7.3151 C   0  0  0  0  0  0  0  0  0  0  0  0
   -0.1785    0.6451    7.1142 C   0  0  2  0  0  0  0  0  0  0  0  0
   -0.6969    0.7662    5.6244 C   0  0  1  0  0  0  0  0  0  0  0  0
   -1.8366   -0.0756    5.5987 O   0  0  0  0  0  0  0  0  0  0  0  0
   -1.4025   -1.5678    5.6115 O   0  0  0  0  0  0  0  0  0  0  0  0
   -0.5456    1.0016    9.8505 H   0  0  0  0  0  0  0  0  0  0  0  0
   -0.0981    2.6793   10.0034 H   0  0  0  0  0  0  0  0  0  0  0  0
    1.1275    1.4907    9.6347 H   0  0  0  0  0  0  0  0  0  0  0  0
    0.6327    2.6093    7.5450 H   0  0  0  0  0  0  0  0  0  0  0  0
   -2.2942    2.2507    8.3500 H   0  0  0  0  0  0  0  0  0  0  0  0
   -1.4048    3.7364    8.1584 H   0  0  0  0  0  0  0  0  0  0  0  0
   -2.9680    2.3288    6.1852 H   0  0  0  0  0  0  0  0  0  0  0  0
   -2.2057    3.8997    6.0952 H   0  0  0  0  0  0  0  0  0  0  0  0
   -0.0676    2.8311    5.4975 H   0  0  0  0  0  0  0  0  0  0  0  0
   -1.9523    1.8061    3.4494 H   0  0  0  0  0  0  0  0  0  0  0  0
   -1.0194    4.6837    3.9443 H   0  0  0  0  0  0  0  0  0  0  0  0
   -2.6774    4.1292    3.8278 H   0  0  0  0  0  0  0  0  0  0  0  0
   -1.6703    4.1410    2.4074 H   0  0  0  0  0  0  0  0  0  0  0  0
   -0.0269    1.7261    2.1035 H   0  0  0  0  0  0  0  0  0  0  0  0
    0.6506    3.7021    2.0274 H   0  0  0  0  0  0  0  0  0  0  0  0
   -0.5675   -0.1124    3.6187 H   0  0  0  0  0  0  0  0  0  0  0  0
   -0.1775   -3.3646    4.0744 H   0  0  0  0  0  0  0  0  0  0  0  0
   -0.2672   -3.9514    5.7312 H   0  0  0  0  0  0  0  0  0  0  0  0
    1.2844   -3.5122    5.0331 H   0  0  0  0  0  0  0  0  0  0  0  0
    0.0351   -2.1121    7.7169 H   0  0  0  0  0  0  0  0  0  0  0  0
    1.6212   -2.2588    7.0072 H   0  0  0  0  0  0  0  0  0  0  0  0
    1.3920   -0.2673    8.3474 H   0  0  0  0  0  0  0  0  0  0  0  0
    1.8878    0.1160    6.7156 H   0  0  0  0  0  0  0  0  0  0  0  0
   -0.9686    0.1137    7.6435 H   0  0  0  0  0  0  0  0  0  0  0  0
  1  2  1  0
  1 21  1  0
  1 22  1  0
  1 23  1  0
  2 17  1  0
  2  3  1  0
  2 24  1  6
  3  4  1  0
  3 25  1  0
  3 26  1  0
  4  5  1  0
  4 27  1  0
  4 28  1  0
  5 18  1  0
  5  6  1  0
  5 29  1  1
  6  7  1  0
  6  8  1  0
  6 30  1  6
  7 31  1  0
  7 32  1  0
  7 33  1  0
  8  9  1  0
  8 10  1  0
  8 34  1  6
  9 35  1  0
 10 11  1  0
 11 18  1  0
 11 12  1  0
 11 36  1  6
 12 13  1  0
 13 20  1  0
 13 14  1  6
 13 15  1  0
 14 37  1  0
 14 38  1  0
 14 39  1  0
 15 16  1  0
 15 40  1  0
 15 41  1  0
 16 17  1  0
 16 42  1  0
 16 43  1  0
 17 18  1  0
 17 44  1  1
 18 19  1  1
 19 20  1  0
M  END
>  <i_m_ct_stereo_status>  (129) 
1

>  <s_m_source_file>  (129) 
/var/tmp/pbs.5076255.sched01/tmpa1vw3d_c/4207j0axjo.sdf

>  <i_m_source_file_index>  (129) 
36

>  <i_lp_mmshare_version>  (129) 
48012

>  <i_f3d_flags>  (129) 
0

>  <s_epik_input>  (129) 
W0NAXTEyM1tDQEBIXTRbQ0gyXVtDSDJdW0NAQEhdKFtDSDNdKVtDQEBIXTJbQ0gyXVtDSDJdW0NAQF0oW0NIM10pKE9PMylPW0NAQEhdMU9bQ0BIXShbT0hdKVtDQEBIXTRbQ0gzXQ==

>  <s_epik_cmdline>  (129) 
J2VwaWtfcHl0aG9uJywgJy1waHQnLCAnMi4wJywgJy1waCcsICc3LjAnLCAnLXRuJywgJzgnLCAnLW1hJywgJzIwMCcsICctaW1hZScsICc8aW5maWxlLm1hZT4nLCAnLW9tYWUnLCAnPG91dGZpbGUubWFlPic=

>  <r_lp_tautomer_probability>  (129) 
1

>  <r_epik_Ionization_Penalty>  (129) 
3.16671e-07

>  <r_epik_Ionization_Penalty_Charging>  (129) 
0

>  <r_epik_Ionization_Penalty_Neutral>  (129) 
3.16671e-07

>  <r_epik_State_Penalty>  (129) 
-0

>  <r_epik_Charging_Adjusted_Penalty>  (129) 
0

>  <i_epik_Tot_Q>  (129) 
0

>  <i_epik_Tot_abs_Q>  (129) 
0

>  <s_epik_Chemistry_Notes>  (129) 
This compound contains an acetal/aminal-like group ( X-CH(R)-Y where X, Y are N, S, or O) that may be acid/base labile, releasing an aldehyde.

>  <s_lp_Force_Field>  (129) 
OPLS3e

>  <r_lp_Energy>  (129) 
64.0424

>  <b_lp_Chiralities_Consistent>  (129) 
1

>  <s_lp_Variant>  (129) 
43:0-1

>  <s_i_glide_gridfile>  (129) 
pfpi4k_grid

>  <i_i_glide_lignum>  (129) 
36

>  <i_i_glide_rotatable_bonds>  (129) 
1

>  <r_i_docking_score>  (129) 
-3.54626

>  <r_i_glide_ligand_efficiency>  (129) 
-0.177313

>  <r_i_glide_ligand_efficiency_sa>  (129) 
-0.481302

>  <r_i_glide_ligand_efficiency_ln>  (129) 
-0.887512

>  <r_i_glide_gscore>  (129) 
-3.54626

>  <r_i_glide_lipo>  (129) 
-0.0831182

>  <r_i_glide_hbond>  (129) 
-0.0128519

>  <r_i_glide_metal>  (129) 
-0

>  <r_i_glide_rewards>  (129) 
-1.47035

>  <r_i_glide_evdw>  (129) 
-16.5318

>  <r_i_glide_ecoul>  (129) 
-7.05112

>  <r_i_glide_erotb>  (129) 
0

>  <r_i_glide_esite>  (129) 
-0.0956816

>  <r_i_glide_emodel>  (129) 
-28.5652

>  <r_i_glide_energy>  (129) 
-23.5829

>  <r_i_glide_einternal>  (129) 
2.02744

>  <r_i_glide_intrahb_reward>  (129) 
-0

>  <i_i_glide_confnum>  (129) 
1

>  <i_i_glide_posenum>  (129) 
10

>  <r_i_glide_eff_state_penalty>  (129) 
0

>  <ligand_id>  (129) 
43

>  <original_smiles>  (129) 
CC1CCC2C(C)C(O)OC3OC4(C)CCC1C32OO4

>  <smiles>  (129) 
[H]OC1([H])OC2([H])OC3(C([H])([H])[H])OOC24C([H])(C([H])([H])C([H])([H])C([H])(C([H])([H])[H])C4([H])C([H])([H])C3([H])[H])C1([H])C([H])([H])[H]

$$$$
43:0:2
     RDKit          3D

 44 47  0  0  1  0  0  0  0  0999 V2000
    0.7987    0.9030    9.4861 C   0  0  0  0  0  0  0  0  0  0  0  0
    0.2005    1.2428    8.1009 C   0  0  2  0  0  0  0  0  0  0  0  0
   -1.2693    1.6986    8.2887 C   0  0  0  0  0  0  0  0  0  0  0  0
   -2.0704    1.8892    6.9862 C   0  0  0  0  0  0  0  0  0  0  0  0
   -1.1624    1.6998    5.7624 C   0  0  2  0  0  0  0  0  0  0  0  0
   -1.7348    2.0706    4.3876 C   0  0  1  0  0  0  0  0  0  0  0  0
   -2.5489    3.3877    4.3921 C   0  0  0  0  0  0  0  0  0  0  0  0
   -0.5048    2.1594    3.4018 C   0  0  1  0  0  0  0  0  0  0  0  0
   -0.0442    3.4990    3.2817 O   0  0  0  0  0  0  0  0  0  0  0  0
    0.5524    1.3134    3.8175 O   0  0  0  0  0  0  0  0  0  0  0  0
    0.1126    0.0978    4.3309 C   0  0  1  0  0  0  0  0  0  0  0  0
    1.0331   -0.9292    4.2941 O   0  0  0  0  0  0  0  0  0  0  0  0
    0.6632   -2.0275    5.1175 C   0  0  1  0  0  0  0  0  0  0  0  0
    1.0292   -3.2984    4.3367 C   0  0  0  0  0  0  0  0  0  0  0  0
    1.5551   -1.9522    6.3692 C   0  0  0  0  0  0  0  0  0  0  0  0
    1.6853   -0.5338    6.9058 C   0  0  0  0  0  0  0  0  0  0  0  0
    0.2904    0.0631    7.0821 C   0  0  2  0  0  0  0  0  0  0  0  0
   -0.5382    0.2791    5.7452 C   0  0  1  0  0  0  0  0  0  0  0  0
   -1.4721   -0.7853    5.7468 O   0  0  0  0  0  0  0  0  0  0  0  0
   -0.7605   -2.1310    5.4341 O   0  0  0  0  0  0  0  0  0  0  0  0
    0.4238   -0.0459    9.8643 H   0  0  0  0  0  0  0  0  0  0  0  0
    0.5431    1.6514   10.2384 H   0  0  0  0  0  0  0  0  0  0  0  0
    1.8864    0.8394    9.4669 H   0  0  0  0  0  0  0  0  0  0  0  0
    0.7794    2.0860    7.7118 H   0  0  0  0  0  0  0  0  0  0  0  0
   -1.7872    0.9576    8.8903 H   0  0  0  0  0  0  0  0  0  0  0  0
   -1.2861    2.6327    8.8531 H   0  0  0  0  0  0  0  0  0  0  0  0
   -2.9037    1.1861    6.9488 H   0  0  0  0  0  0  0  0  0  0  0  0
   -2.5131    2.8874    7.0162 H   0  0  0  0  0  0  0  0  0  0  0  0
   -0.3626    2.4299    5.8904 H   0  0  0  0  0  0  0  0  0  0  0  0
   -2.3879    1.2661    4.0631 H   0  0  0  0  0  0  0  0  0  0  0  0
   -1.9861    4.1890    4.8704 H   0  0  0  0  0  0  0  0  0  0  0  0
   -3.4829    3.2981    4.9404 H   0  0  0  0  0  0  0  0  0  0  0  0
   -2.8007    3.7236    3.3851 H   0  0  0  0  0  0  0  0  0  0  0  0
   -0.8156    1.8590    2.3940 H   0  0  0  0  0  0  0  0  0  0  0  0
    0.0743    3.7129    2.3512 H   0  0  0  0  0  0  0  0  0  0  0  0
   -0.6455   -0.2660    3.6239 H   0  0  0  0  0  0  0  0  0  0  0  0
    0.4663   -3.3791    3.4068 H   0  0  0  0  0  0  0  0  0  0  0  0
    0.8303   -4.1927    4.9291 H   0  0  0  0  0  0  0  0  0  0  0  0
    2.0887   -3.3160    4.0722 H   0  0  0  0  0  0  0  0  0  0  0  0
    1.1599   -2.6184    7.1360 H   0  0  0  0  0  0  0  0  0  0  0  0
    2.5634   -2.3029    6.1542 H   0  0  0  0  0  0  0  0  0  0  0  0
    2.2291   -0.6237    7.8443 H   0  0  0  0  0  0  0  0  0  0  0  0
    2.2897    0.0868    6.2456 H   0  0  0  0  0  0  0  0  0  0  0  0
   -0.2482   -0.7161    7.6252 H   0  0  0  0  0  0  0  0  0  0  0  0
  1  2  1  0
  1 21  1  0
  1 22  1  0
  1 23  1  0
  2 17  1  0
  2  3  1  0
  2 24  1  6
  3  4  1  0
  3 25  1  0
  3 26  1  0
  4  5  1  0
  4 27  1  0
  4 28  1  0
  5 18  1  0
  5  6  1  0
  5 29  1  1
  6  7  1  0
  6  8  1  0
  6 30  1  6
  7 31  1  0
  7 32  1  0
  7 33  1  0
  8  9  1  0
  8 10  1  0
  8 34  1  6
  9 35  1  0
 10 11  1  0
 11 18  1  0
 11 12  1  0
 11 36  1  6
 12 13  1  0
 13 20  1  0
 13 14  1  6
 13 15  1  0
 14 37  1  0
 14 38  1  0
 14 39  1  0
 15 16  1  0
 15 40  1  0
 15 41  1  0
 16 17  1  0
 16 42  1  0
 16 43  1  0
 17 18  1  0
 17 44  1  1
 18 19  1  1
 19 20  1  0
M  END
>  <i_m_ct_stereo_status>  (130) 
1

>  <s_m_source_file>  (130) 
/var/tmp/pbs.5076255.sched01/tmpa1vw3d_c/4207j0axjo.sdf

>  <i_m_source_file_index>  (130) 
36

>  <i_lp_mmshare_version>  (130) 
48012

>  <i_f3d_flags>  (130) 
0

>  <s_epik_input>  (130) 
W0NAXTEyM1tDQEBIXTRbQ0gyXVtDSDJdW0NAQEhdKFtDSDNdKVtDQEBIXTJbQ0gyXVtDSDJdW0NAQF0oW0NIM10pKE9PMylPW0NAQEhdMU9bQ0BIXShbT0hdKVtDQEBIXTRbQ0gzXQ==

>  <s_epik_cmdline>  (130) 
J2VwaWtfcHl0aG9uJywgJy1waHQnLCAnMi4wJywgJy1waCcsICc3LjAnLCAnLXRuJywgJzgnLCAnLW1hJywgJzIwMCcsICctaW1hZScsICc8aW5maWxlLm1hZT4nLCAnLW9tYWUnLCAnPG91dGZpbGUubWFlPic=

>  <r_lp_tautomer_probability>  (130) 
1

>  <r_epik_Ionization_Penalty>  (130) 
3.16671e-07

>  <r_epik_Ionization_Penalty_Charging>  (130) 
0

>  <r_epik_Ionization_Penalty_Neutral>  (130) 
3.16671e-07

>  <r_epik_State_Penalty>  (130) 
-0

>  <r_epik_Charging_Adjusted_Penalty>  (130) 
0

>  <i_epik_Tot_Q>  (130) 
0

>  <i_epik_Tot_abs_Q>  (130) 
0

>  <s_epik_Chemistry_Notes>  (130) 
This compound contains an acetal/aminal-like group ( X-CH(R)-Y where X, Y are N, S, or O) that may be acid/base labile, releasing an aldehyde.

>  <s_lp_Force_Field>  (130) 
OPLS3e

>  <r_lp_Energy>  (130) 
64.0424

>  <b_lp_Chiralities_Consistent>  (130) 
1

>  <s_lp_Variant>  (130) 
43:0-1

>  <s_i_glide_gridfile>  (130) 
pfpi4k_grid

>  <i_i_glide_lignum>  (130) 
36

>  <i_i_glide_rotatable_bonds>  (130) 
1

>  <r_i_docking_score>  (130) 
-3.27882

>  <r_i_glide_ligand_efficiency>  (130) 
-0.163941

>  <r_i_glide_ligand_efficiency_sa>  (130) 
-0.445005

>  <r_i_glide_ligand_efficiency_ln>  (130) 
-0.820581

>  <r_i_glide_gscore>  (130) 
-3.27882

>  <r_i_glide_lipo>  (130) 
-0.0252555

>  <r_i_glide_hbond>  (130) 
-0.0211755

>  <r_i_glide_metal>  (130) 
-0

>  <r_i_glide_rewards>  (130) 
-1.47035

>  <r_i_glide_evdw>  (130) 
-16.7414

>  <r_i_glide_ecoul>  (130) 
-5.76543

>  <r_i_glide_erotb>  (130) 
0

>  <r_i_glide_esite>  (130) 
-0.0601558

>  <r_i_glide_emodel>  (130) 
-26.8432

>  <r_i_glide_energy>  (130) 
-22.5068

>  <r_i_glide_einternal>  (130) 
1.39225

>  <r_i_glide_intrahb_reward>  (130) 
-0

>  <i_i_glide_confnum>  (130) 
2

>  <i_i_glide_posenum>  (130) 
30

>  <r_i_glide_eff_state_penalty>  (130) 
0

>  <ligand_id>  (130) 
43

>  <original_smiles>  (130) 
CC1CCC2C(C)C(O)OC3OC4(C)CCC1C32OO4

>  <smiles>  (130) 
[H]OC1([H])OC2([H])OC3(C([H])([H])[H])OOC24C([H])(C([H])([H])C([H])([H])C([H])(C([H])([H])[H])C4([H])C([H])([H])C3([H])[H])C1([H])C([H])([H])[H]

$$$$
44:0:0
     RDKit          3D

 46 50  0  0  1  0  0  0  0  0999 V2000
    4.5071   -9.0360    0.7398 C   0  0  0  0  0  0  0  0  0  0  0  0
    3.3940   -8.8890    1.7751 C   0  0  0  0  0  0  0  0  0  0  0  0
    3.0236  -10.0258    2.4884 C   0  0  0  0  0  0  0  0  0  0  0  0
    1.9604   -9.9714    3.4147 C   0  0  0  0  0  0  0  0  0  0  0  0
    1.3145   -8.7342    3.5945 C   0  0  0  0  0  0  0  0  0  0  0  0
    1.6699   -7.6192    2.9456 N   0  0  0  0  0  0  0  0  0  0  0  0
    2.6853   -7.6830    2.0384 C   0  0  0  0  0  0  0  0  0  0  0  0
    3.0348   -6.4768    1.3754 N   0  0  0  0  0  0  0  0  0  0  0  0
    2.2224   -5.7731    0.5895 C   0  0  0  0  0  0  0  0  0  0  0  0
    1.0494   -6.0447    0.2826 O   0  0  0  0  0  0  0  0  0  0  0  0
    2.8369   -4.6548    0.1419 N   0  0  0  0  0  0  0  0  0  0  0  0
    4.1911   -4.5722    0.6603 C   0  0  0  0  0  0  0  0  0  0  0  0
    4.4197   -3.2168    1.3811 C   0  0  0  0  0  0  0  0  0  0  0  0
    4.4428   -2.0222    0.4289 C   0  0  0  0  0  0  0  0  0  0  0  0
    5.3762   -2.2783   -0.7603 C   0  0  0  0  0  0  0  0  0  0  0  0
    6.2010   -1.4760   -1.1018 O   0  0  0  0  0  0  0  0  0  0  0  0
    5.2439   -3.6119   -1.4941 C   0  0  0  0  0  0  0  0  0  0  0  0
    5.2163   -4.7416   -0.4972 C   0  0  0  0  0  0  0  0  0  0  0  0
    4.3024   -5.8003    1.5927 C   0  0  2  0  0  0  0  0  0  0  0  0
    5.3947   -6.5369    1.1107 O   0  0  0  0  0  0  0  0  0  0  0  0
    6.3097   -6.6363    2.1283 C   0  0  0  0  0  0  0  0  0  0  0  0
    7.4744   -7.2662    1.9618 N   0  0  0  0  0  0  0  0  0  0  0  0
    8.2807   -7.3417    3.0562 C   0  0  0  0  0  0  0  0  0  0  0  0
    7.9535   -6.7566    4.3035 C   0  0  0  0  0  0  0  0  0  0  0  0
    6.7284   -6.0676    4.4525 C   0  0  0  0  0  0  0  0  0  0  0  0
    5.9032   -6.0436    3.3120 C   0  0  0  0  0  0  0  0  0  0  0  0
    4.5800   -5.4951    3.1010 C   0  0  0  0  0  0  0  0  0  0  0  0
    3.8174   -4.9276    3.8858 O   0  0  0  0  0  0  0  0  0  0  0  0
    4.7471  -10.0733    0.5568 H   0  0  0  0  0  0  0  0  0  0  0  0
    5.4390   -8.6354    1.1181 H   0  0  0  0  0  0  0  0  0  0  0  0
    4.2350   -8.5535   -0.1959 H   0  0  0  0  0  0  0  0  0  0  0  0
    3.5427  -10.9546    2.3188 H   0  0  0  0  0  0  0  0  0  0  0  0
    1.6548  -10.8591    3.9446 H   0  0  0  0  0  0  0  0  0  0  0  0
    0.4884   -8.6633    4.2858 H   0  0  0  0  0  0  0  0  0  0  0  0
    2.4224   -3.9822   -0.4862 H   0  0  0  0  0  0  0  0  0  0  0  0
    3.6336   -3.0460    2.1213 H   0  0  0  0  0  0  0  0  0  0  0  0
    5.3704   -3.2449    1.9228 H   0  0  0  0  0  0  0  0  0  0  0  0
    3.4475   -1.8281    0.0381 H   0  0  0  0  0  0  0  0  0  0  0  0
    4.7675   -1.1257    0.9800 H   0  0  0  0  0  0  0  0  0  0  0  0
    4.3442   -3.5950   -2.0960 H   0  0  0  0  0  0  0  0  0  0  0  0
    6.1097   -3.7431   -2.1514 H   0  0  0  0  0  0  0  0  0  0  0  0
    6.2209   -4.8341   -0.0799 H   0  0  0  0  0  0  0  0  0  0  0  0
    5.0181   -5.6638   -1.0420 H   0  0  0  0  0  0  0  0  0  0  0  0
    9.1947   -7.9057    2.9206 H   0  0  0  0  0  0  0  0  0  0  0  0
    8.6474   -6.8428    5.1312 H   0  0  0  0  0  0  0  0  0  0  0  0
    6.4265   -5.6084    5.3867 H   0  0  0  0  0  0  0  0  0  0  0  0
  1  2  1  0
  1 29  1  0
  1 30  1  0
  1 31  1  0
  2  7  2  0
  2  3  1  0
  3  4  2  0
  3 32  1  0
  4  5  1  0
  4 33  1  0
  5  6  2  0
  5 34  1  0
  6  7  1  0
  7  8  1  0
  8 19  1  0
  8  9  1  0
  9 10  2  0
  9 11  1  0
 11 12  1  0
 11 35  1  0
 12 18  1  0
 12 13  1  0
 12 19  1  0
 13 14  1  0
 13 36  1  0
 13 37  1  0
 14 15  1  0
 14 38  1  0
 14 39  1  0
 15 16  2  0
 15 17  1  0
 17 18  1  0
 17 40  1  0
 17 41  1  0
 18 42  1  0
 18 43  1  0
 19 27  1  0
 19 20  1  6
 20 21  1  0
 21 26  2  0
 21 22  1  0
 22 23  2  0
 23 24  1  0
 23 44  1  0
 24 25  2  0
 24 45  1  0
 25 26  1  0
 25 46  1  0
 26 27  1  0
 27 28  2  0
M  END
>  <i_m_ct_stereo_status>  (131) 
1

>  <s_m_source_file>  (131) 
/var/tmp/pbs.5076255.sched01/tmpa1vw3d_c/4207j0axjo.sdf

>  <i_m_source_file_index>  (131) 
37

>  <i_lp_mmshare_version>  (131) 
48012

>  <i_f3d_flags>  (131) 
0

>  <s_epik_input>  (131) 
W0NIM11jMVtjSF1bY0hdW2NIXW5jMU4oQyg9TylbTkhdMilbQ0BdMyhDMjRbQ0gyXVtDSDJdQyg9TylbQ0gyXVtDSDJdNClPYzVjKEMzPU8pW2NIXVtjSF1bY0hdbjU=

>  <s_epik_cmdline>  (131) 
J2VwaWtfcHl0aG9uJywgJy1waHQnLCAnMi4wJywgJy1waCcsICc3LjAnLCAnLXRuJywgJzgnLCAnLW1hJywgJzIwMCcsICctaW1hZScsICc8aW5maWxlLm1hZT4nLCAnLW9tYWUnLCAnPG91dGZpbGUubWFlPic=

>  <r_lp_tautomer_probability>  (131) 
1

>  <r_epik_Ionization_Penalty>  (131) 
0.00126738

>  <r_epik_Ionization_Penalty_Charging>  (131) 
0

>  <r_epik_Ionization_Penalty_Neutral>  (131) 
0.00126738

>  <r_epik_State_Penalty>  (131) 
-0

>  <r_epik_Charging_Adjusted_Penalty>  (131) 
0

>  <i_epik_Tot_Q>  (131) 
0

>  <i_epik_Tot_abs_Q>  (131) 
0

>  <s_lp_Force_Field>  (131) 
OPLS3e

>  <r_lp_Energy>  (131) 
29.8996

>  <b_lp_Chiralities_Consistent>  (131) 
1

>  <s_lp_Variant>  (131) 
44:0-1

>  <s_i_glide_gridfile>  (131) 
pfpi4k_grid

>  <i_i_glide_lignum>  (131) 
37

>  <i_i_glide_rotatable_bonds>  (131) 
1

>  <r_i_docking_score>  (131) 
-4.01973

>  <r_i_glide_ligand_efficiency>  (131) 
-0.143562

>  <r_i_glide_ligand_efficiency_sa>  (131) 
-0.435938

>  <r_i_glide_ligand_efficiency_ln>  (131) 
-0.927872

>  <r_i_glide_gscore>  (131) 
-4.01973

>  <r_i_glide_lipo>  (131) 
-0.191427

>  <r_i_glide_hbond>  (131) 
-0.393666

>  <r_i_glide_metal>  (131) 
-0

>  <r_i_glide_rewards>  (131) 
-0.940937

>  <r_i_glide_evdw>  (131) 
-25.1609

>  <r_i_glide_ecoul>  (131) 
-8.46038

>  <r_i_glide_erotb>  (131) 
0.135351

>  <r_i_glide_esite>  (131) 
-0.101951

>  <r_i_glide_emodel>  (131) 
-39.9692

>  <r_i_glide_energy>  (131) 
-33.6213

>  <r_i_glide_einternal>  (131) 
2.1384

>  <r_i_glide_intrahb_reward>  (131) 
-0

>  <i_i_glide_confnum>  (131) 
6

>  <i_i_glide_posenum>  (131) 
36

>  <r_i_glide_eff_state_penalty>  (131) 
0

>  <ligand_id>  (131) 
44

>  <original_smiles>  (131) 
Cc1cccnc1N1C(=O)NC2(CCC(=O)CC2)C12Oc1ncccc1C2=O

>  <smiles>  (131) 
[H]c1nc2c(c([H])c1[H])C(=O)C1(O2)N(c2nc([H])c([H])c([H])c2C([H])([H])[H])C(=O)N([H])C12C([H])([H])C([H])([H])C(=O)C([H])([H])C2([H])[H]

$$$$
44:0:1
     RDKit          3D

 46 50  0  0  1  0  0  0  0  0999 V2000
    3.6733   -8.1824    3.2748 C   0  0  0  0  0  0  0  0  0  0  0  0
    2.2800   -7.7331    3.7254 C   0  0  0  0  0  0  0  0  0  0  0  0
    1.6258   -8.4721    4.7307 C   0  0  0  0  0  0  0  0  0  0  0  0
    0.3312   -8.1104    5.1230 C   0  0  0  0  0  0  0  0  0  0  0  0
   -0.2758   -7.0137    4.5052 C   0  0  0  0  0  0  0  0  0  0  0  0
    0.3281   -6.2899    3.5499 N   0  0  0  0  0  0  0  0  0  0  0  0
    1.5737   -6.6308    3.1640 C   0  0  0  0  0  0  0  0  0  0  0  0
    2.2075   -5.8186    2.1987 N   0  0  0  0  0  0  0  0  0  0  0  0
    1.8791   -5.8198    0.8945 C   0  0  0  0  0  0  0  0  0  0  0  0
    0.9916   -6.4300    0.3272 O   0  0  0  0  0  0  0  0  0  0  0  0
    2.6578   -4.9423    0.2566 N   0  0  0  0  0  0  0  0  0  0  0  0
    3.5708   -4.2375    1.1061 C   0  0  0  0  0  0  0  0  0  0  0  0
    3.3990   -2.6902    0.9771 C   0  0  0  0  0  0  0  0  0  0  0  0
    3.8779   -2.1045   -0.3639 C   0  0  0  0  0  0  0  0  0  0  0  0
    5.2830   -2.5862   -0.7362 C   0  0  0  0  0  0  0  0  0  0  0  0
    6.1801   -1.8050   -1.0769 O   0  0  0  0  0  0  0  0  0  0  0  0
    5.5230   -4.0970   -0.6020 C   0  0  0  0  0  0  0  0  0  0  0  0
    5.0326   -4.6067    0.7177 C   0  0  0  0  0  0  0  0  0  0  0  0
    3.1928   -4.8014    2.5102 C   0  0  2  0  0  0  0  0  0  0  0  0
    4.3552   -5.3899    3.0453 O   0  0  0  0  0  0  0  0  0  0  0  0
    4.6483   -4.7490    4.2035 C   0  0  0  0  0  0  0  0  0  0  0  0
    5.7720   -5.0431    4.8856 N   0  0  0  0  0  0  0  0  0  0  0  0
    5.9662   -4.3457    6.0399 C   0  0  0  0  0  0  0  0  0  0  0  0
    5.0750   -3.3395    6.5120 C   0  0  0  0  0  0  0  0  0  0  0  0
    3.9036   -3.0293    5.7643 C   0  0  0  0  0  0  0  0  0  0  0  0
    3.7245   -3.7871    4.5877 C   0  0  0  0  0  0  0  0  0  0  0  0
    2.6738   -3.7806    3.6059 C   0  0  0  0  0  0  0  0  0  0  0  0
    1.6187   -3.1484    3.6153 O   0  0  0  0  0  0  0  0  0  0  0  0
    3.8968   -9.1758    3.6858 H   0  0  0  0  0  0  0  0  0  0  0  0
    4.4759   -7.5641    3.6584 H   0  0  0  0  0  0  0  0  0  0  0  0
    3.7251   -8.2406    2.1815 H   0  0  0  0  0  0  0  0  0  0  0  0
    2.1266   -9.3181    5.1663 H   0  0  0  0  0  0  0  0  0  0  0  0
   -0.1887   -8.6988    5.8685 H   0  0  0  0  0  0  0  0  0  0  0  0
   -1.2792   -6.7105    4.7796 H   0  0  0  0  0  0  0  0  0  0  0  0
    2.5254   -4.8094   -0.7563 H   0  0  0  0  0  0  0  0  0  0  0  0
    2.3472   -2.4086    1.0931 H   0  0  0  0  0  0  0  0  0  0  0  0
    3.9578   -2.1764    1.7679 H   0  0  0  0  0  0  0  0  0  0  0  0
    3.1789   -2.3939   -1.1507 H   0  0  0  0  0  0  0  0  0  0  0  0
    3.8533   -1.0117   -0.2961 H   0  0  0  0  0  0  0  0  0  0  0  0
    5.0298   -4.6279   -1.4338 H   0  0  0  0  0  0  0  0  0  0  0  0
    6.6011   -4.2914   -0.6729 H   0  0  0  0  0  0  0  0  0  0  0  0
    5.7385   -4.2175    1.4800 H   0  0  0  0  0  0  0  0  0  0  0  0
    5.1589   -5.7117    0.7292 H   0  0  0  0  0  0  0  0  0  0  0  0
    6.8428   -4.6268    6.5838 H   0  0  0  0  0  0  0  0  0  0  0  0
    5.2823   -2.8470    7.4421 H   0  0  0  0  0  0  0  0  0  0  0  0
    3.1893   -2.2812    6.0600 H   0  0  0  0  0  0  0  0  0  0  0  0
  1  2  1  0
  1 29  1  0
  1 30  1  0
  1 31  1  0
  2  7  2  0
  2  3  1  0
  3  4  2  0
  3 32  1  0
  4  5  1  0
  4 33  1  0
  5  6  2  0
  5 34  1  0
  6  7  1  0
  7  8  1  0
  8 19  1  0
  8  9  1  0
  9 10  2  0
  9 11  1  0
 11 12  1  0
 11 35  1  0
 12 18  1  0
 12 13  1  0
 12 19  1  0
 13 14  1  0
 13 36  1  0
 13 37  1  0
 14 15  1  0
 14 38  1  0
 14 39  1  0
 15 16  2  0
 15 17  1  0
 17 18  1  0
 17 40  1  0
 17 41  1  0
 18 42  1  0
 18 43  1  0
 19 27  1  0
 19 20  1  1
 20 21  1  0
 21 26  2  0
 21 22  1  0
 22 23  2  0
 23 24  1  0
 23 44  1  0
 24 25  2  0
 24 45  1  0
 25 26  1  0
 25 46  1  0
 26 27  1  0
 27 28  2  0
M  END
>  <i_m_ct_stereo_status>  (132) 
1

>  <s_m_source_file>  (132) 
/var/tmp/pbs.5076255.sched01/tmpa1vw3d_c/4207j0axjo.sdf

>  <i_m_source_file_index>  (132) 
37

>  <i_lp_mmshare_version>  (132) 
48012

>  <i_f3d_flags>  (132) 
0

>  <s_epik_input>  (132) 
W0NIM11jMVtjSF1bY0hdW2NIXW5jMU4oQyg9TylbTkhdMilbQ0BdMyhDMjRbQ0gyXVtDSDJdQyg9TylbQ0gyXVtDSDJdNClPYzVjKEMzPU8pW2NIXVtjSF1bY0hdbjU=

>  <s_epik_cmdline>  (132) 
J2VwaWtfcHl0aG9uJywgJy1waHQnLCAnMi4wJywgJy1waCcsICc3LjAnLCAnLXRuJywgJzgnLCAnLW1hJywgJzIwMCcsICctaW1hZScsICc8aW5maWxlLm1hZT4nLCAnLW9tYWUnLCAnPG91dGZpbGUubWFlPic=

>  <r_lp_tautomer_probability>  (132) 
1

>  <r_epik_Ionization_Penalty>  (132) 
0.00126738

>  <r_epik_Ionization_Penalty_Charging>  (132) 
0

>  <r_epik_Ionization_Penalty_Neutral>  (132) 
0.00126738

>  <r_epik_State_Penalty>  (132) 
-0

>  <r_epik_Charging_Adjusted_Penalty>  (132) 
0

>  <i_epik_Tot_Q>  (132) 
0

>  <i_epik_Tot_abs_Q>  (132) 
0

>  <s_lp_Force_Field>  (132) 
OPLS3e

>  <r_lp_Energy>  (132) 
29.8996

>  <b_lp_Chiralities_Consistent>  (132) 
1

>  <s_lp_Variant>  (132) 
44:0-1

>  <s_i_glide_gridfile>  (132) 
pfpi4k_grid

>  <i_i_glide_lignum>  (132) 
37

>  <i_i_glide_rotatable_bonds>  (132) 
1

>  <r_i_docking_score>  (132) 
-3.32443

>  <r_i_glide_ligand_efficiency>  (132) 
-0.118729

>  <r_i_glide_ligand_efficiency_sa>  (132) 
-0.360533

>  <r_i_glide_ligand_efficiency_ln>  (132) 
-0.767375

>  <r_i_glide_gscore>  (132) 
-3.32443

>  <r_i_glide_lipo>  (132) 
-0.109991

>  <r_i_glide_hbond>  (132) 
-0.479063

>  <r_i_glide_metal>  (132) 
-0

>  <r_i_glide_rewards>  (132) 
-0.83034

>  <r_i_glide_evdw>  (132) 
-21.5974

>  <r_i_glide_ecoul>  (132) 
-5.52887

>  <r_i_glide_erotb>  (132) 
0.135351

>  <r_i_glide_esite>  (132) 
-0.13118

>  <r_i_glide_emodel>  (132) 
-33.871

>  <r_i_glide_energy>  (132) 
-27.1263

>  <r_i_glide_einternal>  (132) 
0.610247

>  <r_i_glide_intrahb_reward>  (132) 
-0

>  <i_i_glide_confnum>  (132) 
2

>  <i_i_glide_posenum>  (132) 
12

>  <r_i_glide_eff_state_penalty>  (132) 
0

>  <ligand_id>  (132) 
44

>  <original_smiles>  (132) 
Cc1cccnc1N1C(=O)NC2(CCC(=O)CC2)C12Oc1ncccc1C2=O

>  <smiles>  (132) 
[H]c1nc2c(c([H])c1[H])C(=O)C1(O2)N(c2nc([H])c([H])c([H])c2C([H])([H])[H])C(=O)N([H])C12C([H])([H])C([H])([H])C(=O)C([H])([H])C2([H])[H]

$$$$
44:0:2
     RDKit          3D

 46 50  0  0  1  0  0  0  0  0999 V2000
    1.7403   -5.6651    6.5354 C   0  0  0  0  0  0  0  0  0  0  0  0
    1.1891   -6.1928    5.2279 C   0  0  0  0  0  0  0  0  0  0  0  0
    0.8583   -7.5663    5.1073 C   0  0  0  0  0  0  0  0  0  0  0  0
    0.3932   -8.0558    3.8865 C   0  0  0  0  0  0  0  0  0  0  0  0
    0.2913   -7.1843    2.7986 C   0  0  0  0  0  0  0  0  0  0  0  0
    0.6138   -5.8776    2.8855 N   0  0  0  0  0  0  0  0  0  0  0  0
    1.0164   -5.3935    4.0828 C   0  0  0  0  0  0  0  0  0  0  0  0
    1.3905   -4.0244    4.1465 N   0  0  0  0  0  0  0  0  0  0  0  0
    0.7136   -3.0848    4.8580 C   0  0  0  0  0  0  0  0  0  0  0  0
   -0.2239   -3.2619    5.5928 O   0  0  0  0  0  0  0  0  0  0  0  0
    1.3195   -1.8786    4.6217 N   0  0  0  0  0  0  0  0  0  0  0  0
    2.4005   -1.9661    3.6541 C   0  0  0  0  0  0  0  0  0  0  0  0
    3.7170   -1.3913    4.2531 C   0  0  0  0  0  0  0  0  0  0  0  0
    4.9009   -1.4561    3.2610 C   0  0  0  0  0  0  0  0  0  0  0  0
    4.5233   -0.8898    1.8918 C   0  0  0  0  0  0  0  0  0  0  0  0
    5.3422   -0.2452    1.2444 O   0  0  0  0  0  0  0  0  0  0  0  0
    3.1621   -1.2542    1.2963 C   0  0  0  0  0  0  0  0  0  0  0  0
    2.0274   -1.2138    2.3467 C   0  0  0  0  0  0  0  0  0  0  0  0
    2.4528   -3.4996    3.3530 C   0  0  2  0  0  0  0  0  0  0  0  0
    2.2262   -3.7048    1.9709 O   0  0  0  0  0  0  0  0  0  0  0  0
    3.3412   -4.3338    1.4507 C   0  0  0  0  0  0  0  0  0  0  0  0
    3.5097   -4.4808    0.1189 N   0  0  0  0  0  0  0  0  0  0  0  0
    4.6958   -5.0121   -0.2625 C   0  0  0  0  0  0  0  0  0  0  0  0
    5.7265   -5.3742    0.6339 C   0  0  0  0  0  0  0  0  0  0  0  0
    5.5281   -5.1725    2.0142 C   0  0  0  0  0  0  0  0  0  0  0  0
    4.3005   -4.6108    2.3888 C   0  0  0  0  0  0  0  0  0  0  0  0
    3.7800   -4.2158    3.6774 C   0  0  0  0  0  0  0  0  0  0  0  0
    4.2857   -4.3115    4.8032 O   0  0  0  0  0  0  0  0  0  0  0  0
    1.8907   -6.4604    7.2589 H   0  0  0  0  0  0  0  0  0  0  0  0
    1.0590   -4.9373    6.9763 H   0  0  0  0  0  0  0  0  0  0  0  0
    2.7038   -5.1715    6.3977 H   0  0  0  0  0  0  0  0  0  0  0  0
    0.9626   -8.2075    5.9594 H   0  0  0  0  0  0  0  0  0  0  0  0
    0.1208   -9.0989    3.7867 H   0  0  0  0  0  0  0  0  0  0  0  0
   -0.0630   -7.5278    1.8400 H   0  0  0  0  0  0  0  0  0  0  0  0
    1.0471   -0.9924    5.0633 H   0  0  0  0  0  0  0  0  0  0  0  0
    3.5636   -0.3447    4.5329 H   0  0  0  0  0  0  0  0  0  0  0  0
    3.9562   -1.8857    5.1992 H   0  0  0  0  0  0  0  0  0  0  0  0
    5.7758   -0.9516    3.6726 H   0  0  0  0  0  0  0  0  0  0  0  0
    5.2311   -2.4884    3.1280 H   0  0  0  0  0  0  0  0  0  0  0  0
    2.9068   -0.6503    0.4317 H   0  0  0  0  0  0  0  0  0  0  0  0
    3.2662   -2.2400    0.8795 H   0  0  0  0  0  0  0  0  0  0  0  0
    1.1011   -1.6383    1.9491 H   0  0  0  0  0  0  0  0  0  0  0  0
    1.7902   -0.1736    2.5775 H   0  0  0  0  0  0  0  0  0  0  0  0
    4.8331   -5.1663   -1.3326 H   0  0  0  0  0  0  0  0  0  0  0  0
    6.6252   -5.8420    0.2806 H   0  0  0  0  0  0  0  0  0  0  0  0
    6.2982   -5.3900    2.7463 H   0  0  0  0  0  0  0  0  0  0  0  0
  1  2  1  0
  1 29  1  0
  1 30  1  0
  1 31  1  0
  2  7  2  0
  2  3  1  0
  3  4  2  0
  3 32  1  0
  4  5  1  0
  4 33  1  0
  5  6  2  0
  5 34  1  0
  6  7  1  0
  7  8  1  0
  8 19  1  0
  8  9  1  0
  9 10  2  0
  9 11  1  0
 11 12  1  0
 11 35  1  0
 12 18  1  0
 12 13  1  0
 12 19  1  0
 13 14  1  0
 13 36  1  0
 13 37  1  0
 14 15  1  0
 14 38  1  0
 14 39  1  0
 15 16  2  0
 15 17  1  0
 17 18  1  0
 17 40  1  0
 17 41  1  0
 18 42  1  0
 18 43  1  0
 19 27  1  0
 19 20  1  6
 20 21  1  0
 21 26  2  0
 21 22  1  0
 22 23  2  0
 23 24  1  0
 23 44  1  0
 24 25  2  0
 24 45  1  0
 25 26  1  0
 25 46  1  0
 26 27  1  0
 27 28  2  0
M  END
>  <i_m_ct_stereo_status>  (133) 
1

>  <s_m_source_file>  (133) 
/var/tmp/pbs.5076255.sched01/tmpa1vw3d_c/4207j0axjo.sdf

>  <i_m_source_file_index>  (133) 
37

>  <i_lp_mmshare_version>  (133) 
48012

>  <i_f3d_flags>  (133) 
0

>  <s_epik_input>  (133) 
W0NIM11jMVtjSF1bY0hdW2NIXW5jMU4oQyg9TylbTkhdMilbQ0BdMyhDMjRbQ0gyXVtDSDJdQyg9TylbQ0gyXVtDSDJdNClPYzVjKEMzPU8pW2NIXVtjSF1bY0hdbjU=

>  <s_epik_cmdline>  (133) 
J2VwaWtfcHl0aG9uJywgJy1waHQnLCAnMi4wJywgJy1waCcsICc3LjAnLCAnLXRuJywgJzgnLCAnLW1hJywgJzIwMCcsICctaW1hZScsICc8aW5maWxlLm1hZT4nLCAnLW9tYWUnLCAnPG91dGZpbGUubWFlPic=

>  <r_lp_tautomer_probability>  (133) 
1

>  <r_epik_Ionization_Penalty>  (133) 
0.00126738

>  <r_epik_Ionization_Penalty_Charging>  (133) 
0

>  <r_epik_Ionization_Penalty_Neutral>  (133) 
0.00126738

>  <r_epik_State_Penalty>  (133) 
-0

>  <r_epik_Charging_Adjusted_Penalty>  (133) 
0

>  <i_epik_Tot_Q>  (133) 
0

>  <i_epik_Tot_abs_Q>  (133) 
0

>  <s_lp_Force_Field>  (133) 
OPLS3e

>  <r_lp_Energy>  (133) 
29.8996

>  <b_lp_Chiralities_Consistent>  (133) 
1

>  <s_lp_Variant>  (133) 
44:0-1

>  <s_i_glide_gridfile>  (133) 
pfpi4k_grid

>  <i_i_glide_lignum>  (133) 
37

>  <i_i_glide_rotatable_bonds>  (133) 
1

>  <r_i_docking_score>  (133) 
-2.68191

>  <r_i_glide_ligand_efficiency>  (133) 
-0.0957823

>  <r_i_glide_ligand_efficiency_sa>  (133) 
-0.290852

>  <r_i_glide_ligand_efficiency_ln>  (133) 
-0.619062

>  <r_i_glide_gscore>  (133) 
-2.68191

>  <r_i_glide_lipo>  (133) 
-0.220456

>  <r_i_glide_hbond>  (133) 
-0.189863

>  <r_i_glide_metal>  (133) 
-0

>  <r_i_glide_rewards>  (133) 
-0.949607

>  <r_i_glide_evdw>  (133) 
-22.245

>  <r_i_glide_ecoul>  (133) 
-2.30052

>  <r_i_glide_erotb>  (133) 
0.135351

>  <r_i_glide_esite>  (133) 
0

>  <r_i_glide_emodel>  (133) 
-27.436

>  <r_i_glide_energy>  (133) 
-24.5456

>  <r_i_glide_einternal>  (133) 
0.000885938

>  <r_i_glide_intrahb_reward>  (133) 
-0

>  <i_i_glide_confnum>  (133) 
3

>  <i_i_glide_posenum>  (133) 
39

>  <r_i_glide_eff_state_penalty>  (133) 
0

>  <ligand_id>  (133) 
44

>  <original_smiles>  (133) 
Cc1cccnc1N1C(=O)NC2(CCC(=O)CC2)C12Oc1ncccc1C2=O

>  <smiles>  (133) 
[H]c1nc2c(c([H])c1[H])C(=O)C1(O2)N(c2nc([H])c([H])c([H])c2C([H])([H])[H])C(=O)N([H])C12C([H])([H])C([H])([H])C(=O)C([H])([H])C2([H])[H]

$$$$
45:0:0
     RDKit          3D

 44 45  0  0  1  0  0  0  0  0999 V2000
   -3.6773    3.3924    9.5578 C   0  0  0  0  0  0  0  0  0  0  0  0
   -2.1600    3.3276    9.6153 C   0  0  0  0  0  0  0  0  0  0  0  0
   -1.6239    3.4203    8.3052 O   0  0  0  0  0  0  0  0  0  0  0  0
   -1.4865    2.3515    7.5626 C   0  0  0  0  0  0  0  0  0  0  0  0
   -2.1873    1.3541    7.6746 O   0  0  0  0  0  0  0  0  0  0  0  0
   -0.4379    2.4983    6.5028 C   0  0  0  0  0  0  0  0  0  0  0  0
    0.7457    3.0948    6.7218 C   0  0  0  0  0  0  0  0  0  0  0  0
    1.2735    3.6165    8.0552 C   0  0  0  0  0  0  0  0  0  0  0  0
    1.6794    3.1973    5.6518 N   0  0  0  0  0  0  0  0  0  0  0  0
    1.4183    2.8750    4.4292 C   0  0  0  0  0  0  0  0  0  0  0  0
    2.4952    3.0777    3.3475 C   0  0  0  0  0  0  0  0  0  0  0  0
    0.0163    2.4412    3.9893 C   0  0  1  0  0  0  0  0  0  0  0  0
   -0.0685    1.4758    2.7541 C   0  0  0  0  0  0  0  0  0  0  0  0
    0.8694    0.6749    2.5184 O   0  0  0  0  0  0  0  0  0  0  0  0
   -1.2149    1.4739    2.0317 O   0  0  0  0  0  0  0  0  0  0  0  0
   -2.3228    2.3251    2.3306 C   0  0  0  0  0  0  0  0  0  0  0  0
   -0.8334    1.8766    5.1732 C   0  0  1  0  0  0  0  0  0  0  0  0
   -0.7838    0.3834    5.2371 C   0  0  0  0  0  0  0  0  0  0  0  0
   -1.6985   -0.6014    4.9535 C   0  0  0  0  0  0  0  0  0  0  0  0
   -1.0278   -1.8488    5.0961 N   0  0  0  0  0  0  0  0  0  0  0  0
    0.2257   -1.5033    5.4247 C   0  0  0  0  0  0  0  0  0  0  0  0
    1.5918   -2.5516    5.7576 S   0  0  0  0  0  0  0  0  0  0  0  0
    0.8872   -4.1049    5.1888 C   0  0  0  0  0  0  0  0  0  0  0  0
    0.4173   -0.1774    5.5458 O   0  0  0  0  0  0  0  0  0  0  0  0
   -4.1373    3.3445   10.5532 H   0  0  0  0  0  0  0  0  0  0  0  0
   -4.0689    2.5600    8.9712 H   0  0  0  0  0  0  0  0  0  0  0  0
   -3.9707    4.3144    9.0558 H   0  0  0  0  0  0  0  0  0  0  0  0
   -1.7706    4.1672   10.1917 H   0  0  0  0  0  0  0  0  0  0  0  0
   -1.8009    2.4348   10.0997 H   0  0  0  0  0  0  0  0  0  0  0  0
    0.5291    3.7627    8.8555 H   0  0  0  0  0  0  0  0  0  0  0  0
    1.8026    4.5525    7.8930 H   0  0  0  0  0  0  0  0  0  0  0  0
    1.9977    2.8910    8.4150 H   0  0  0  0  0  0  0  0  0  0  0  0
    2.1544    3.7894    2.5839 H   0  0  0  0  0  0  0  0  0  0  0  0
    2.7183    2.1317    2.8466 H   0  0  0  0  0  0  0  0  0  0  0  0
    3.4102    3.4927    3.7713 H   0  0  0  0  0  0  0  0  0  0  0  0
   -0.4225    3.3987    3.7103 H   0  0  0  0  0  0  0  0  0  0  0  0
   -3.0647    2.1745    1.5473 H   0  0  0  0  0  0  0  0  0  0  0  0
   -2.0021    3.3700    2.3021 H   0  0  0  0  0  0  0  0  0  0  0  0
   -2.7134    2.0586    3.3045 H   0  0  0  0  0  0  0  0  0  0  0  0
   -1.8640    2.1878    5.0251 H   0  0  0  0  0  0  0  0  0  0  0  0
   -2.6886   -0.5442    4.6090 H   0  0  0  0  0  0  0  0  0  0  0  0
    1.5975   -4.9119    5.3463 H   0  0  0  0  0  0  0  0  0  0  0  0
    0.6529   -4.0289    4.1293 H   0  0  0  0  0  0  0  0  0  0  0  0
   -0.0288   -4.3237    5.7330 H   0  0  0  0  0  0  0  0  0  0  0  0
  1  2  1  0
  1 25  1  0
  1 26  1  0
  1 27  1  0
  2  3  1  0
  2 28  1  0
  2 29  1  0
  3  4  1  0
  4  5  2  0
  4  6  1  0
  6 17  1  0
  6  7  2  0
  7  8  1  0
  7  9  1  0
  8 30  1  0
  8 31  1  0
  8 32  1  0
  9 10  2  0
 10 11  1  0
 10 12  1  0
 11 33  1  0
 11 34  1  0
 11 35  1  0
 12 13  1  0
 12 17  1  0
 12 36  1  6
 13 14  2  0
 13 15  1  0
 15 16  1  0
 16 37  1  0
 16 38  1  0
 16 39  1  0
 17 18  1  0
 17 40  1  6
 18 24  1  0
 18 19  2  0
 19 20  1  0
 19 41  1  0
 20 21  2  0
 21 22  1  0
 21 24  1  0
 22 23  1  0
 23 42  1  0
 23 43  1  0
 23 44  1  0
M  END
>  <i_m_ct_stereo_status>  (134) 
1

>  <s_m_source_file>  (134) 
/var/tmp/pbs.5076255.sched01/tmpa1vw3d_c/4207j0axjo.sdf

>  <i_m_source_file_index>  (134) 
38

>  <i_lp_mmshare_version>  (134) 
48012

>  <i_f3d_flags>  (134) 
0

>  <s_epik_input>  (134) 
W0NIM11bQ0gyXU9DKD1PKUMxPUMoW0NIM10pTj1DKFtDSDNdKVtDQEBIXShDKD1PKU9bQ0gzXSlbQ0BIXTFjMltjSF1uYyhvMilTW0NIM10=

>  <s_epik_cmdline>  (134) 
J2VwaWtfcHl0aG9uJywgJy1waHQnLCAnMi4wJywgJy1waCcsICc3LjAnLCAnLXRuJywgJzgnLCAnLW1hJywgJzIwMCcsICctaW1hZScsICc8aW5maWxlLm1hZT4nLCAnLW9tYWUnLCAnPG91dGZpbGUubWFlPic=

>  <r_lp_tautomer_probability>  (134) 
0.499993

>  <r_epik_Ionization_Penalty>  (134) 
1.11066e-09

>  <r_epik_Ionization_Penalty_Charging>  (134) 
0

>  <r_epik_Ionization_Penalty_Neutral>  (134) 
1.11066e-09

>  <r_epik_State_Penalty>  (134) 
0.41068

>  <r_epik_Charging_Adjusted_Penalty>  (134) 
0.41068

>  <i_epik_Tot_Q>  (134) 
0

>  <i_epik_Tot_abs_Q>  (134) 
0

>  <s_epik_Chemistry_Notes>  (134) 
This compound has an ester and may undergo hydrolysis at high or low pH. This compound has an imine and may undergo hydrolysis.

>  <s_lp_Force_Field>  (134) 
OPLS3e

>  <r_lp_Energy>  (134) 
20.5547

>  <b_lp_Chiralities_Consistent>  (134) 
1

>  <s_lp_Variant>  (134) 
45:0-1

>  <s_i_glide_gridfile>  (134) 
pfpi4k_grid

>  <i_i_glide_lignum>  (134) 
38

>  <i_i_glide_rotatable_bonds>  (134) 
7

>  <r_i_docking_score>  (134) 
-2.28161

>  <r_i_glide_ligand_efficiency>  (134) 
-0.0950671

>  <r_i_glide_ligand_efficiency_sa>  (134) 
-0.274221

>  <r_i_glide_ligand_efficiency_ln>  (134) 
-0.546094

>  <r_i_glide_gscore>  (134) 
-2.28161

>  <r_i_glide_lipo>  (134) 
-0.0647801

>  <r_i_glide_hbond>  (134) 
-0.139695

>  <r_i_glide_metal>  (134) 
-0

>  <r_i_glide_rewards>  (134) 
-1.00632

>  <r_i_glide_evdw>  (134) 
-22.7501

>  <r_i_glide_ecoul>  (134) 
-3.15114

>  <r_i_glide_erotb>  (134) 
0.614686

>  <r_i_glide_esite>  (134) 
-0.0753264

>  <r_i_glide_emodel>  (134) 
-25.4758

>  <r_i_glide_energy>  (134) 
-25.9012

>  <r_i_glide_einternal>  (134) 
7.44462

>  <r_i_glide_intrahb_reward>  (134) 
-0

>  <i_i_glide_confnum>  (134) 
3

>  <i_i_glide_posenum>  (134) 
12

>  <r_i_glide_eff_state_penalty>  (134) 
0

>  <ligand_id>  (134) 
45

>  <original_smiles>  (134) 
CCOC(=O)C1=C(C)N=C(C)C(C(=O)OC)C1c1cnc(SC)o1

>  <smiles>  (134) 
[H]c1nc(SC([H])([H])[H])oc1C1([H])C(C(=O)OC([H])([H])C([H])([H])[H])=C(C([H])([H])[H])N=C(C([H])([H])[H])C1([H])C(=O)OC([H])([H])[H]

$$$$
45:0:1
     RDKit          3D

 44 45  0  0  1  0  0  0  0  0999 V2000
   -2.5788    3.3193   10.3709 C   0  0  0  0  0  0  0  0  0  0  0  0
   -3.1656    3.9022    9.0669 C   0  0  0  0  0  0  0  0  0  0  0  0
   -2.2788    3.7966    7.9537 O   0  0  0  0  0  0  0  0  0  0  0  0
   -1.9729    2.5903    7.4272 C   0  0  0  0  0  0  0  0  0  0  0  0
   -2.5574    1.5589    7.6786 O   0  0  0  0  0  0  0  0  0  0  0  0
   -0.8404    2.6591    6.4620 C   0  0  0  0  0  0  0  0  0  0  0  0
    0.3382    3.2827    6.7164 C   0  0  0  0  0  0  0  0  0  0  0  0
    0.7060    3.9047    8.0591 C   0  0  0  0  0  0  0  0  0  0  0  0
    1.3559    3.2903    5.7483 N   0  0  0  0  0  0  0  0  0  0  0  0
    1.2042    2.8876    4.5422 C   0  0  0  0  0  0  0  0  0  0  0  0
    2.3639    2.9886    3.5470 C   0  0  0  0  0  0  0  0  0  0  0  0
   -0.1564    2.4075    4.0016 C   0  0  1  0  0  0  0  0  0  0  0  0
   -0.1149    1.3623    2.8470 C   0  0  0  0  0  0  0  0  0  0  0  0
    0.7949    0.5165    2.7769 O   0  0  0  0  0  0  0  0  0  0  0  0
   -1.1570    1.3324    2.0028 O   0  0  0  0  0  0  0  0  0  0  0  0
   -2.3055    2.1455    2.1539 C   0  0  0  0  0  0  0  0  0  0  0  0
   -1.1051    1.9389    5.1545 C   0  0  1  0  0  0  0  0  0  0  0  0
   -1.0725    0.4512    5.3440 C   0  0  0  0  0  0  0  0  0  0  0  0
   -1.9635   -0.5601    5.1165 C   0  0  0  0  0  0  0  0  0  0  0  0
   -1.3287   -1.7658    5.3953 N   0  0  0  0  0  0  0  0  0  0  0  0
   -0.0893   -1.4139    5.7415 C   0  0  0  0  0  0  0  0  0  0  0  0
    1.2593   -2.4243    6.2221 S   0  0  0  0  0  0  0  0  0  0  0  0
    0.5554   -4.0283    5.7852 C   0  0  0  0  0  0  0  0  0  0  0  0
    0.1149   -0.0744    5.7565 O   0  0  0  0  0  0  0  0  0  0  0  0
   -3.2849    3.4273   11.1870 H   0  0  0  0  0  0  0  0  0  0  0  0
   -1.6638    3.8163   10.6836 H   0  0  0  0  0  0  0  0  0  0  0  0
   -2.3627    2.2569   10.2945 H   0  0  0  0  0  0  0  0  0  0  0  0
   -4.1390    3.4512    8.8467 H   0  0  0  0  0  0  0  0  0  0  0  0
   -3.3452    4.9697    9.2221 H   0  0  0  0  0  0  0  0  0  0  0  0
   -0.1212    4.1049    8.7501 H   0  0  0  0  0  0  0  0  0  0  0  0
    1.2386    4.8431    7.8943 H   0  0  0  0  0  0  0  0  0  0  0  0
    1.3865    3.2211    8.5703 H   0  0  0  0  0  0  0  0  0  0  0  0
    2.1010    3.6318    2.7009 H   0  0  0  0  0  0  0  0  0  0  0  0
    2.6386    2.0109    3.1463 H   0  0  0  0  0  0  0  0  0  0  0  0
    3.2541    3.4214    4.0100 H   0  0  0  0  0  0  0  0  0  0  0  0
   -0.5672    3.3356    3.6076 H   0  0  0  0  0  0  0  0  0  0  0  0
   -3.0112    1.9313    1.3458 H   0  0  0  0  0  0  0  0  0  0  0  0
   -2.0264    3.2042    2.1073 H   0  0  0  0  0  0  0  0  0  0  0  0
   -2.7714    1.9395    3.1088 H   0  0  0  0  0  0  0  0  0  0  0  0
   -2.1276    2.2332    4.9022 H   0  0  0  0  0  0  0  0  0  0  0  0
   -2.9666   -0.5222    4.7394 H   0  0  0  0  0  0  0  0  0  0  0  0
    1.2558   -4.8213    6.0432 H   0  0  0  0  0  0  0  0  0  0  0  0
    0.3542   -4.0603    4.7151 H   0  0  0  0  0  0  0  0  0  0  0  0
   -0.3774   -4.1892    6.3239 H   0  0  0  0  0  0  0  0  0  0  0  0
  1  2  1  0
  1 25  1  0
  1 26  1  0
  1 27  1  0
  2  3  1  0
  2 28  1  0
  2 29  1  0
  3  4  1  0
  4  5  2  0
  4  6  1  0
  6 17  1  0
  6  7  2  0
  7  8  1  0
  7  9  1  0
  8 30  1  0
  8 31  1  0
  8 32  1  0
  9 10  2  0
 10 11  1  0
 10 12  1  0
 11 33  1  0
 11 34  1  0
 11 35  1  0
 12 13  1  0
 12 17  1  0
 12 36  1  6
 13 14  2  0
 13 15  1  0
 15 16  1  0
 16 37  1  0
 16 38  1  0
 16 39  1  0
 17 18  1  0
 17 40  1  6
 18 24  1  0
 18 19  2  0
 19 20  1  0
 19 41  1  0
 20 21  2  0
 21 22  1  0
 21 24  1  0
 22 23  1  0
 23 42  1  0
 23 43  1  0
 23 44  1  0
M  END
>  <i_m_ct_stereo_status>  (135) 
1

>  <s_m_source_file>  (135) 
/var/tmp/pbs.5076255.sched01/tmpa1vw3d_c/4207j0axjo.sdf

>  <i_m_source_file_index>  (135) 
38

>  <i_lp_mmshare_version>  (135) 
48012

>  <i_f3d_flags>  (135) 
0

>  <s_epik_input>  (135) 
W0NIM11bQ0gyXU9DKD1PKUMxPUMoW0NIM10pTj1DKFtDSDNdKVtDQEBIXShDKD1PKU9bQ0gzXSlbQ0BIXTFjMltjSF1uYyhvMilTW0NIM10=

>  <s_epik_cmdline>  (135) 
J2VwaWtfcHl0aG9uJywgJy1waHQnLCAnMi4wJywgJy1waCcsICc3LjAnLCAnLXRuJywgJzgnLCAnLW1hJywgJzIwMCcsICctaW1hZScsICc8aW5maWxlLm1hZT4nLCAnLW9tYWUnLCAnPG91dGZpbGUubWFlPic=

>  <r_lp_tautomer_probability>  (135) 
0.499993

>  <r_epik_Ionization_Penalty>  (135) 
1.11066e-09

>  <r_epik_Ionization_Penalty_Charging>  (135) 
0

>  <r_epik_Ionization_Penalty_Neutral>  (135) 
1.11066e-09

>  <r_epik_State_Penalty>  (135) 
0.41068

>  <r_epik_Charging_Adjusted_Penalty>  (135) 
0.41068

>  <i_epik_Tot_Q>  (135) 
0

>  <i_epik_Tot_abs_Q>  (135) 
0

>  <s_epik_Chemistry_Notes>  (135) 
This compound has an ester and may undergo hydrolysis at high or low pH. This compound has an imine and may undergo hydrolysis.

>  <s_lp_Force_Field>  (135) 
OPLS3e

>  <r_lp_Energy>  (135) 
20.5547

>  <b_lp_Chiralities_Consistent>  (135) 
1

>  <s_lp_Variant>  (135) 
45:0-1

>  <s_i_glide_gridfile>  (135) 
pfpi4k_grid

>  <i_i_glide_lignum>  (135) 
38

>  <i_i_glide_rotatable_bonds>  (135) 
7

>  <r_i_docking_score>  (135) 
-2.27799

>  <r_i_glide_ligand_efficiency>  (135) 
-0.0949162

>  <r_i_glide_ligand_efficiency_sa>  (135) 
-0.273786

>  <r_i_glide_ligand_efficiency_ln>  (135) 
-0.545227

>  <r_i_glide_gscore>  (135) 
-2.27799

>  <r_i_glide_lipo>  (135) 
-0.0520005

>  <r_i_glide_hbond>  (135) 
-0.0903842

>  <r_i_glide_metal>  (135) 
-0

>  <r_i_glide_rewards>  (135) 
-1.05213

>  <r_i_glide_evdw>  (135) 
-22.5378

>  <r_i_glide_ecoul>  (135) 
-3.39369

>  <r_i_glide_erotb>  (135) 
0.614686

>  <r_i_glide_esite>  (135) 
-0.0622112

>  <r_i_glide_emodel>  (135) 
-26.106

>  <r_i_glide_energy>  (135) 
-25.9315

>  <r_i_glide_einternal>  (135) 
6.5987

>  <r_i_glide_intrahb_reward>  (135) 
-0

>  <i_i_glide_confnum>  (135) 
3

>  <i_i_glide_posenum>  (135) 
1

>  <r_i_glide_eff_state_penalty>  (135) 
0

>  <ligand_id>  (135) 
45

>  <original_smiles>  (135) 
CCOC(=O)C1=C(C)N=C(C)C(C(=O)OC)C1c1cnc(SC)o1

>  <smiles>  (135) 
[H]c1nc(SC([H])([H])[H])oc1C1([H])C(C(=O)OC([H])([H])C([H])([H])[H])=C(C([H])([H])[H])N=C(C([H])([H])[H])C1([H])C(=O)OC([H])([H])[H]

$$$$
45:0:2
     RDKit          3D

 44 45  0  0  1  0  0  0  0  0999 V2000
    1.8182    0.6293    1.6946 C   0  0  0  0  0  0  0  0  0  0  0  0
    1.8218    2.0894    2.1471 C   0  0  0  0  0  0  0  0  0  0  0  0
    0.9283    2.2078    3.2397 O   0  0  0  0  0  0  0  0  0  0  0  0
    1.1899    3.0288    4.2725 C   0  0  0  0  0  0  0  0  0  0  0  0
    2.2219    3.6825    4.4103 O   0  0  0  0  0  0  0  0  0  0  0  0
    0.0808    3.0248    5.2599 C   0  0  0  0  0  0  0  0  0  0  0  0
   -1.2161    3.2626    4.9119 C   0  0  0  0  0  0  0  0  0  0  0  0
   -1.6775    3.5938    3.4997 C   0  0  0  0  0  0  0  0  0  0  0  0
   -2.2502    3.1767    5.8572 N   0  0  0  0  0  0  0  0  0  0  0  0
   -2.0418    3.0355    7.1105 C   0  0  0  0  0  0  0  0  0  0  0  0
   -3.2087    2.9685    8.0915 C   0  0  0  0  0  0  0  0  0  0  0  0
   -0.6248    2.9864    7.7187 C   0  0  1  0  0  0  0  0  0  0  0  0
   -0.5525    2.1466    9.0146 C   0  0  0  0  0  0  0  0  0  0  0  0
   -0.9484    0.9769    9.0380 O   0  0  0  0  0  0  0  0  0  0  0  0
   -0.0267    2.7928   10.0474 O   0  0  0  0  0  0  0  0  0  0  0  0
    0.0230    2.1114   11.2910 C   0  0  0  0  0  0  0  0  0  0  0  0
    0.4661    2.5948    6.6745 C   0  0  1  0  0  0  0  0  0  0  0  0
    0.7815    1.1346    6.6850 C   0  0  0  0  0  0  0  0  0  0  0  0
    1.8409    0.3967    7.1463 C   0  0  0  0  0  0  0  0  0  0  0  0
    1.5247   -0.9491    7.0237 N   0  0  0  0  0  0  0  0  0  0  0  0
    0.3140   -0.9524    6.4780 C   0  0  0  0  0  0  0  0  0  0  0  0
   -0.7070   -2.3196    6.0764 S   0  0  0  0  0  0  0  0  0  0  0  0
    0.5224   -3.6363    6.2808 C   0  0  0  0  0  0  0  0  0  0  0  0
   -0.1891    0.2884    6.2344 O   0  0  0  0  0  0  0  0  0  0  0  0
    2.5225    0.4719    0.8796 H   0  0  0  0  0  0  0  0  0  0  0  0
    0.8283    0.3207    1.3500 H   0  0  0  0  0  0  0  0  0  0  0  0
    2.1107   -0.0226    2.5170 H   0  0  0  0  0  0  0  0  0  0  0  0
    2.8377    2.3945    2.3983 H   0  0  0  0  0  0  0  0  0  0  0  0
    1.4789    2.7311    1.3399 H   0  0  0  0  0  0  0  0  0  0  0  0
   -0.8628    3.9493    2.8757 H   0  0  0  0  0  0  0  0  0  0  0  0
   -2.4406    4.3646    3.4939 H   0  0  0  0  0  0  0  0  0  0  0  0
   -2.0926    2.7070    3.0220 H   0  0  0  0  0  0  0  0  0  0  0  0
   -3.1705    3.7904    8.8048 H   0  0  0  0  0  0  0  0  0  0  0  0
   -3.1894    2.0505    8.6641 H   0  0  0  0  0  0  0  0  0  0  0  0
   -4.1642    2.9612    7.5788 H   0  0  0  0  0  0  0  0  0  0  0  0
   -0.4096    4.0107    8.0023 H   0  0  0  0  0  0  0  0  0  0  0  0
    0.4838    2.7464   12.0499 H   0  0  0  0  0  0  0  0  0  0  0  0
    0.6048    1.1908   11.1987 H   0  0  0  0  0  0  0  0  0  0  0  0
   -0.9839    1.8388   11.6221 H   0  0  0  0  0  0  0  0  0  0  0  0
    1.3737    3.1450    6.9368 H   0  0  0  0  0  0  0  0  0  0  0  0
    2.7486    0.7260    7.6046 H   0  0  0  0  0  0  0  0  0  0  0  0
    0.0972   -4.6084    6.0286 H   0  0  0  0  0  0  0  0  0  0  0  0
    0.8697   -3.6591    7.3151 H   0  0  0  0  0  0  0  0  0  0  0  0
    1.3771   -3.4441    5.6305 H   0  0  0  0  0  0  0  0  0  0  0  0
  1  2  1  0
  1 25  1  0
  1 26  1  0
  1 27  1  0
  2  3  1  0
  2 28  1  0
  2 29  1  0
  3  4  1  0
  4  5  2  0
  4  6  1  0
  6 17  1  0
  6  7  2  0
  7  8  1  0
  7  9  1  0
  8 30  1  0
  8 31  1  0
  8 32  1  0
  9 10  2  0
 10 11  1  0
 10 12  1  0
 11 33  1  0
 11 34  1  0
 11 35  1  0
 12 13  1  0
 12 17  1  0
 12 36  1  1
 13 14  2  0
 13 15  1  0
 15 16  1  0
 16 37  1  0
 16 38  1  0
 16 39  1  0
 17 18  1  0
 17 40  1  1
 18 24  1  0
 18 19  2  0
 19 20  1  0
 19 41  1  0
 20 21  2  0
 21 22  1  0
 21 24  1  0
 22 23  1  0
 23 42  1  0
 23 43  1  0
 23 44  1  0
M  END
>  <i_m_ct_stereo_status>  (136) 
1

>  <s_m_source_file>  (136) 
/var/tmp/pbs.5076255.sched01/tmpa1vw3d_c/4207j0axjo.sdf

>  <i_m_source_file_index>  (136) 
38

>  <i_lp_mmshare_version>  (136) 
48012

>  <i_f3d_flags>  (136) 
0

>  <s_epik_input>  (136) 
W0NIM11bQ0gyXU9DKD1PKUMxPUMoW0NIM10pTj1DKFtDSDNdKVtDQEBIXShDKD1PKU9bQ0gzXSlbQ0BIXTFjMltjSF1uYyhvMilTW0NIM10=

>  <s_epik_cmdline>  (136) 
J2VwaWtfcHl0aG9uJywgJy1waHQnLCAnMi4wJywgJy1waCcsICc3LjAnLCAnLXRuJywgJzgnLCAnLW1hJywgJzIwMCcsICctaW1hZScsICc8aW5maWxlLm1hZT4nLCAnLW9tYWUnLCAnPG91dGZpbGUubWFlPic=

>  <r_lp_tautomer_probability>  (136) 
0.499993

>  <r_epik_Ionization_Penalty>  (136) 
1.11066e-09

>  <r_epik_Ionization_Penalty_Charging>  (136) 
0

>  <r_epik_Ionization_Penalty_Neutral>  (136) 
1.11066e-09

>  <r_epik_State_Penalty>  (136) 
0.41068

>  <r_epik_Charging_Adjusted_Penalty>  (136) 
0.41068

>  <i_epik_Tot_Q>  (136) 
0

>  <i_epik_Tot_abs_Q>  (136) 
0

>  <s_epik_Chemistry_Notes>  (136) 
This compound has an ester and may undergo hydrolysis at high or low pH. This compound has an imine and may undergo hydrolysis.

>  <s_lp_Force_Field>  (136) 
OPLS3e

>  <r_lp_Energy>  (136) 
20.5547

>  <b_lp_Chiralities_Consistent>  (136) 
1

>  <s_lp_Variant>  (136) 
45:0-1

>  <s_i_glide_gridfile>  (136) 
pfpi4k_grid

>  <i_i_glide_lignum>  (136) 
38

>  <i_i_glide_rotatable_bonds>  (136) 
7

>  <r_i_docking_score>  (136) 
-2.02261

>  <r_i_glide_ligand_efficiency>  (136) 
-0.0842755

>  <r_i_glide_ligand_efficiency_sa>  (136) 
-0.243093

>  <r_i_glide_ligand_efficiency_ln>  (136) 
-0.484104

>  <r_i_glide_gscore>  (136) 
-2.02261

>  <r_i_glide_lipo>  (136) 
-0.0816701

>  <r_i_glide_hbond>  (136) 
0

>  <r_i_glide_metal>  (136) 
-0

>  <r_i_glide_rewards>  (136) 
-1.10228

>  <r_i_glide_evdw>  (136) 
-20.4683

>  <r_i_glide_ecoul>  (136) 
-2.61205

>  <r_i_glide_erotb>  (136) 
0.614686

>  <r_i_glide_esite>  (136) 
-0.0381302

>  <r_i_glide_emodel>  (136) 
-25.341

>  <r_i_glide_energy>  (136) 
-23.0803

>  <r_i_glide_einternal>  (136) 
1.6752

>  <r_i_glide_intrahb_reward>  (136) 
-0

>  <i_i_glide_confnum>  (136) 
2

>  <i_i_glide_posenum>  (136) 
3

>  <r_i_glide_eff_state_penalty>  (136) 
0

>  <ligand_id>  (136) 
45

>  <original_smiles>  (136) 
CCOC(=O)C1=C(C)N=C(C)C(C(=O)OC)C1c1cnc(SC)o1

>  <smiles>  (136) 
[H]c1nc(SC([H])([H])[H])oc1C1([H])C(C(=O)OC([H])([H])C([H])([H])[H])=C(C([H])([H])[H])N=C(C([H])([H])[H])C1([H])C(=O)OC([H])([H])[H]

$$$$
45:1:0
     RDKit          3D

 44 45  0  0  1  0  0  0  0  0999 V2000
    4.1762   -9.4409    0.2776 C   0  0  0  0  0  0  0  0  0  0  0  0
    3.1217   -9.4767    1.3501 C   0  0  0  0  0  0  0  0  0  0  0  0
    3.2968   -8.3948    2.2250 O   0  0  0  0  0  0  0  0  0  0  0  0
    4.1081   -8.4355    3.2963 C   0  0  0  0  0  0  0  0  0  0  0  0
    4.6840   -9.4155    3.7349 O   0  0  0  0  0  0  0  0  0  0  0  0
    4.3003   -7.0179    3.8973 C   0  0  1  0  0  0  0  0  0  0  0  0
    4.8131   -5.9670    2.8793 C   0  0  0  0  0  0  0  0  0  0  0  0
    5.5911   -6.4934    1.6737 C   0  0  0  0  0  0  0  0  0  0  0  0
    4.6039   -4.7211    3.0069 N   0  0  0  0  0  0  0  0  0  0  0  0
    3.9026   -4.1583    4.1030 C   0  0  0  0  0  0  0  0  0  0  0  0
    3.7814   -2.8131    4.0872 C   0  0  0  0  0  0  0  0  0  0  0  0
    3.2840   -5.0679    5.1912 C   0  0  1  0  0  0  0  0  0  0  0  0
    2.0032   -4.4579    5.8406 C   0  0  0  0  0  0  0  0  0  0  0  0
    1.7738   -4.5348    7.0316 O   0  0  0  0  0  0  0  0  0  0  0  0
    1.2066   -3.8932    4.9372 O   0  0  0  0  0  0  0  0  0  0  0  0
    0.0506   -3.1722    5.2499 C   0  0  0  0  0  0  0  0  0  0  0  0
    3.0226   -6.4886    4.6205 C   0  0  1  0  0  0  0  0  0  0  0  0
    1.7769   -6.5341    3.7269 C   0  0  0  0  0  0  0  0  0  0  0  0
    1.2932   -5.6971    2.7669 C   0  0  0  0  0  0  0  0  0  0  0  0
    0.2154   -6.3086    2.1404 N   0  0  0  0  0  0  0  0  0  0  0  0
    0.1231   -7.4812    2.7487 C   0  0  0  0  0  0  0  0  0  0  0  0
   -1.0401   -8.7446    2.4795 S   0  0  0  0  0  0  0  0  0  0  0  0
    0.0868  -10.1557    2.7453 C   0  0  0  0  0  0  0  0  0  0  0  0
    1.0454   -7.6854    3.7137 O   0  0  0  0  0  0  0  0  0  0  0  0
    3.9465  -10.2484   -0.3885 H   0  0  0  0  0  0  0  0  0  0  0  0
    5.1860   -9.5362    0.6746 H   0  0  0  0  0  0  0  0  0  0  0  0
    4.1389   -8.5365   -0.3145 H   0  0  0  0  0  0  0  0  0  0  0  0
    2.1656   -9.3357    0.8578 H   0  0  0  0  0  0  0  0  0  0  0  0
    3.0892  -10.4361    1.8746 H   0  0  0  0  0  0  0  0  0  0  0  0
    6.3974   -7.1503    1.9832 H   0  0  0  0  0  0  0  0  0  0  0  0
    5.9918   -5.6962    1.0584 H   0  0  0  0  0  0  0  0  0  0  0  0
    4.9357   -7.0428    1.0142 H   0  0  0  0  0  0  0  0  0  0  0  0
    4.1562   -2.1977    3.2795 H   0  0  0  0  0  0  0  0  0  0  0  0
    5.0780   -7.1156    4.6476 H   0  0  0  0  0  0  0  0  0  0  0  0
    3.2720   -2.2949    4.8958 H   0  0  0  0  0  0  0  0  0  0  0  0
    4.0458   -5.1430    5.9687 H   0  0  0  0  0  0  0  0  0  0  0  0
   -0.4360   -2.8919    4.3191 H   0  0  0  0  0  0  0  0  0  0  0  0
    0.3111   -2.2624    5.7743 H   0  0  0  0  0  0  0  0  0  0  0  0
   -0.6423   -3.7629    5.8321 H   0  0  0  0  0  0  0  0  0  0  0  0
    2.8387   -7.1408    5.4763 H   0  0  0  0  0  0  0  0  0  0  0  0
    1.6381   -4.7189    2.4781 H   0  0  0  0  0  0  0  0  0  0  0  0
   -0.5043  -11.0551    2.5714 H   0  0  0  0  0  0  0  0  0  0  0  0
    0.4375  -10.1693    3.7979 H   0  0  0  0  0  0  0  0  0  0  0  0
    0.8653  -10.1831    2.0690 H   0  0  0  0  0  0  0  0  0  0  0  0
  1  2  1  0
  1 25  1  0
  1 26  1  0
  1 27  1  0
  2  3  1  0
  2 28  1  0
  2 29  1  0
  3  4  1  0
  4  5  2  0
  4  6  1  0
  6 17  1  0
  6 34  1  1
  6  7  1  0
  7  8  1  0
  7  9  2  0
  8 30  1  0
  8 31  1  0
  8 32  1  0
  9 10  1  0
 10 12  1  0
 10 11  2  0
 11 33  1  0
 11 35  1  0
 12 13  1  0
 12 17  1  0
 12 36  1  1
 13 14  2  0
 13 15  1  0
 15 16  1  0
 16 37  1  0
 16 38  1  0
 16 39  1  0
 17 18  1  0
 17 40  1  1
 18 24  1  0
 18 19  2  0
 19 20  1  0
 19 41  1  0
 20 21  2  0
 21 22  1  0
 21 24  1  0
 22 23  1  0
 23 42  1  0
 23 43  1  0
 23 44  1  0
M  END
>  <i_m_ct_stereo_status>  (137) 
1

>  <s_m_source_file>  (137) 
/var/tmp/pbs.5076255.sched01/tmpa1vw3d_c/4207j0axjo.sdf

>  <i_m_source_file_index>  (137) 
39

>  <i_lp_mmshare_version>  (137) 
48012

>  <i_f3d_flags>  (137) 
0

>  <s_epik_input>  (137) 
W0NIM11bQ0gyXU9DKD1PKUMxPUMoW0NIM10pTj1DKFtDSDNdKVtDQEBIXShDKD1PKU9bQ0gzXSlbQ0BIXTFjMltjSF1uYyhvMilTW0NIM10=

>  <s_epik_cmdline>  (137) 
J2VwaWtfcHl0aG9uJywgJy1waHQnLCAnMi4wJywgJy1waCcsICc3LjAnLCAnLXRuJywgJzgnLCAnLW1hJywgJzIwMCcsICctaW1hZScsICc8aW5maWxlLm1hZT4nLCAnLW9tYWUnLCAnPG91dGZpbGUubWFlPic=

>  <r_lp_tautomer_probability>  (137) 
0.499993

>  <r_epik_Ionization_Penalty>  (137) 
4.04322e-09

>  <r_epik_Ionization_Penalty_Charging>  (137) 
0

>  <r_epik_Ionization_Penalty_Neutral>  (137) 
4.04322e-09

>  <r_epik_State_Penalty>  (137) 
0.41068

>  <r_epik_Charging_Adjusted_Penalty>  (137) 
0.41068

>  <i_epik_Tot_Q>  (137) 
0

>  <i_epik_Tot_abs_Q>  (137) 
0

>  <s_epik_Chemistry_Notes>  (137) 
This compound has an ester and may undergo hydrolysis at high or low pH. This compound has an imine and may undergo hydrolysis.

>  <s_lp_Force_Field>  (137) 
OPLS3e

>  <r_lp_Energy>  (137) 
17.8468

>  <b_lp_Chiralities_Consistent>  (137) 
1

>  <s_lp_Variant>  (137) 
45:0-2

>  <s_i_glide_gridfile>  (137) 
pfpi4k_grid

>  <i_i_glide_lignum>  (137) 
39

>  <i_i_glide_rotatable_bonds>  (137) 
7

>  <r_i_docking_score>  (137) 
-1.94667

>  <r_i_glide_ligand_efficiency>  (137) 
-0.0811112

>  <r_i_glide_ligand_efficiency_sa>  (137) 
-0.233965

>  <r_i_glide_ligand_efficiency_ln>  (137) 
-0.465927

>  <r_i_glide_gscore>  (137) 
-1.94667

>  <r_i_glide_lipo>  (137) 
-0.155737

>  <r_i_glide_hbond>  (137) 
-0.222185

>  <r_i_glide_metal>  (137) 
-0

>  <r_i_glide_rewards>  (137) 
-1.00632

>  <r_i_glide_evdw>  (137) 
-13.1187

>  <r_i_glide_ecoul>  (137) 
-3.46713

>  <r_i_glide_erotb>  (137) 
0.614686

>  <r_i_glide_esite>  (137) 
-0.00110815

>  <r_i_glide_emodel>  (137) 
-15.7047

>  <r_i_glide_energy>  (137) 
-16.5858

>  <r_i_glide_einternal>  (137) 
1.98835

>  <r_i_glide_intrahb_reward>  (137) 
-0

>  <i_i_glide_confnum>  (137) 
1

>  <i_i_glide_posenum>  (137) 
20

>  <r_i_glide_eff_state_penalty>  (137) 
0

>  <ligand_id>  (137) 
45

>  <original_smiles>  (137) 
CCOC(=O)C1=C(C)N=C(C)C(C(=O)OC)C1c1cnc(SC)o1

>  <smiles>  (137) 
[H]C([H])=C1N=C(C([H])([H])[H])C([H])(C(=O)OC([H])([H])C([H])([H])[H])C([H])(c2oc(SC([H])([H])[H])nc2[H])C1([H])C(=O)OC([H])([H])[H]

$$$$
45:1:1
     RDKit          3D

 44 45  0  0  1  0  0  0  0  0999 V2000
    4.9654   -9.0829    0.7270 C   0  0  0  0  0  0  0  0  0  0  0  0
    4.1285   -8.5466    1.8866 C   0  0  0  0  0  0  0  0  0  0  0  0
    4.2229   -7.1346    1.8839 O   0  0  0  0  0  0  0  0  0  0  0  0
    5.2720   -6.4508    2.3574 C   0  0  0  0  0  0  0  0  0  0  0  0
    6.2902   -6.9459    2.8328 O   0  0  0  0  0  0  0  0  0  0  0  0
    5.0537   -4.9321    2.2870 C   0  0  1  0  0  0  0  0  0  0  0  0
    4.7204   -4.4013    0.8793 C   0  0  0  0  0  0  0  0  0  0  0  0
    5.1715   -5.2380   -0.3152 C   0  0  0  0  0  0  0  0  0  0  0  0
    4.1009   -3.3125    0.6795 N   0  0  0  0  0  0  0  0  0  0  0  0
    3.6111   -2.5004    1.7231 C   0  0  0  0  0  0  0  0  0  0  0  0
    2.9362   -1.3757    1.3762 C   0  0  0  0  0  0  0  0  0  0  0  0
    3.7995   -2.9055    3.1967 C   0  0  1  0  0  0  0  0  0  0  0  0
    2.6629   -2.4079    4.1095 C   0  0  0  0  0  0  0  0  0  0  0  0
    2.8847   -1.8754    5.2065 O   0  0  0  0  0  0  0  0  0  0  0  0
    1.4464   -2.6685    3.6190 O   0  0  0  0  0  0  0  0  0  0  0  0
    0.2769   -2.2805    4.3000 C   0  0  0  0  0  0  0  0  0  0  0  0
    3.9773   -4.4508    3.2910 C   0  0  1  0  0  0  0  0  0  0  0  0
    2.6753   -5.1941    3.1347 C   0  0  0  0  0  0  0  0  0  0  0  0
    1.9273   -5.5930    2.0391 C   0  0  0  0  0  0  0  0  0  0  0  0
    0.7412   -6.1598    2.4569 N   0  0  0  0  0  0  0  0  0  0  0  0
    0.8273   -6.1109    3.7807 C   0  0  0  0  0  0  0  0  0  0  0  0
   -0.3452   -6.6892    4.9478 S   0  0  0  0  0  0  0  0  0  0  0  0
   -1.0340   -8.0401    3.9550 C   0  0  0  0  0  0  0  0  0  0  0  0
    1.9683   -5.5290    4.2476 O   0  0  0  0  0  0  0  0  0  0  0  0
    4.9355  -10.1679    0.6635 H   0  0  0  0  0  0  0  0  0  0  0  0
    6.0052   -8.8026    0.8384 H   0  0  0  0  0  0  0  0  0  0  0  0
    4.6177   -8.6681   -0.2153 H   0  0  0  0  0  0  0  0  0  0  0  0
    3.0789   -8.7954    1.6963 H   0  0  0  0  0  0  0  0  0  0  0  0
    4.3879   -9.0204    2.8400 H   0  0  0  0  0  0  0  0  0  0  0  0
    6.2321   -5.4502   -0.2717 H   0  0  0  0  0  0  0  0  0  0  0  0
    5.0008   -4.7286   -1.2585 H   0  0  0  0  0  0  0  0  0  0  0  0
    4.6376   -6.1830   -0.3503 H   0  0  0  0  0  0  0  0  0  0  0  0
    2.7672   -1.1318    0.3402 H   0  0  0  0  0  0  0  0  0  0  0  0
    6.0006   -4.4784    2.5751 H   0  0  0  0  0  0  0  0  0  0  0  0
    2.5490   -0.6813    2.1172 H   0  0  0  0  0  0  0  0  0  0  0  0
    4.7281   -2.4488    3.5421 H   0  0  0  0  0  0  0  0  0  0  0  0
   -0.5797   -2.6373    3.7290 H   0  0  0  0  0  0  0  0  0  0  0  0
    0.2150   -1.1923    4.3554 H   0  0  0  0  0  0  0  0  0  0  0  0
    0.2125   -2.7079    5.3037 H   0  0  0  0  0  0  0  0  0  0  0  0
    4.3544   -4.6840    4.2950 H   0  0  0  0  0  0  0  0  0  0  0  0
    2.1273   -5.4209    1.0147 H   0  0  0  0  0  0  0  0  0  0  0  0
   -1.8131   -8.5482    4.5262 H   0  0  0  0  0  0  0  0  0  0  0  0
   -0.2430   -8.7532    3.7112 H   0  0  0  0  0  0  0  0  0  0  0  0
   -1.4600   -7.6568    3.0251 H   0  0  0  0  0  0  0  0  0  0  0  0
  1  2  1  0
  1 25  1  0
  1 26  1  0
  1 27  1  0
  2  3  1  0
  2 28  1  0
  2 29  1  0
  3  4  1  0
  4  5  2  0
  4  6  1  0
  6 17  1  0
  6 34  1  1
  6  7  1  0
  7  8  1  0
  7  9  2  0
  8 30  1  0
  8 31  1  0
  8 32  1  0
  9 10  1  0
 10 12  1  0
 10 11  2  0
 11 33  1  0
 11 35  1  0
 12 13  1  0
 12 17  1  0
 12 36  1  1
 13 14  2  0
 13 15  1  0
 15 16  1  0
 16 37  1  0
 16 38  1  0
 16 39  1  0
 17 18  1  0
 17 40  1  1
 18 24  1  0
 18 19  2  0
 19 20  1  0
 19 41  1  0
 20 21  2  0
 21 22  1  0
 21 24  1  0
 22 23  1  0
 23 42  1  0
 23 43  1  0
 23 44  1  0
M  END
>  <i_m_ct_stereo_status>  (138) 
1

>  <s_m_source_file>  (138) 
/var/tmp/pbs.5076255.sched01/tmpa1vw3d_c/4207j0axjo.sdf

>  <i_m_source_file_index>  (138) 
39

>  <i_lp_mmshare_version>  (138) 
48012

>  <i_f3d_flags>  (138) 
0

>  <s_epik_input>  (138) 
W0NIM11bQ0gyXU9DKD1PKUMxPUMoW0NIM10pTj1DKFtDSDNdKVtDQEBIXShDKD1PKU9bQ0gzXSlbQ0BIXTFjMltjSF1uYyhvMilTW0NIM10=

>  <s_epik_cmdline>  (138) 
J2VwaWtfcHl0aG9uJywgJy1waHQnLCAnMi4wJywgJy1waCcsICc3LjAnLCAnLXRuJywgJzgnLCAnLW1hJywgJzIwMCcsICctaW1hZScsICc8aW5maWxlLm1hZT4nLCAnLW9tYWUnLCAnPG91dGZpbGUubWFlPic=

>  <r_lp_tautomer_probability>  (138) 
0.499993

>  <r_epik_Ionization_Penalty>  (138) 
4.04322e-09

>  <r_epik_Ionization_Penalty_Charging>  (138) 
0

>  <r_epik_Ionization_Penalty_Neutral>  (138) 
4.04322e-09

>  <r_epik_State_Penalty>  (138) 
0.41068

>  <r_epik_Charging_Adjusted_Penalty>  (138) 
0.41068

>  <i_epik_Tot_Q>  (138) 
0

>  <i_epik_Tot_abs_Q>  (138) 
0

>  <s_epik_Chemistry_Notes>  (138) 
This compound has an ester and may undergo hydrolysis at high or low pH. This compound has an imine and may undergo hydrolysis.

>  <s_lp_Force_Field>  (138) 
OPLS3e

>  <r_lp_Energy>  (138) 
17.8468

>  <b_lp_Chiralities_Consistent>  (138) 
1

>  <s_lp_Variant>  (138) 
45:0-2

>  <s_i_glide_gridfile>  (138) 
pfpi4k_grid

>  <i_i_glide_lignum>  (138) 
39

>  <i_i_glide_rotatable_bonds>  (138) 
7

>  <r_i_docking_score>  (138) 
-1.88729

>  <r_i_glide_ligand_efficiency>  (138) 
-0.0786371

>  <r_i_glide_ligand_efficiency_sa>  (138) 
-0.226829

>  <r_i_glide_ligand_efficiency_ln>  (138) 
-0.451715

>  <r_i_glide_gscore>  (138) 
-1.88729

>  <r_i_glide_lipo>  (138) 
-0.0764941

>  <r_i_glide_hbond>  (138) 
-0.0105632

>  <r_i_glide_metal>  (138) 
-0

>  <r_i_glide_rewards>  (138) 
-1.0615

>  <r_i_glide_evdw>  (138) 
-20.3803

>  <r_i_glide_ecoul>  (138) 
-2.22939

>  <r_i_glide_erotb>  (138) 
0.614686

>  <r_i_glide_esite>  (138) 
0

>  <r_i_glide_emodel>  (138) 
-23.0522

>  <r_i_glide_energy>  (138) 
-22.6097

>  <r_i_glide_einternal>  (138) 
1.51876

>  <r_i_glide_intrahb_reward>  (138) 
-0

>  <i_i_glide_confnum>  (138) 
1

>  <i_i_glide_posenum>  (138) 
27

>  <r_i_glide_eff_state_penalty>  (138) 
0

>  <ligand_id>  (138) 
45

>  <original_smiles>  (138) 
CCOC(=O)C1=C(C)N=C(C)C(C(=O)OC)C1c1cnc(SC)o1

>  <smiles>  (138) 
[H]C([H])=C1N=C(C([H])([H])[H])C([H])(C(=O)OC([H])([H])C([H])([H])[H])C([H])(c2oc(SC([H])([H])[H])nc2[H])C1([H])C(=O)OC([H])([H])[H]

$$$$
45:1:2
     RDKit          3D

 44 45  0  0  1  0  0  0  0  0999 V2000
   -2.0159   -2.8228    6.4219 C   0  0  0  0  0  0  0  0  0  0  0  0
   -2.1520   -1.4084    5.8380 C   0  0  0  0  0  0  0  0  0  0  0  0
   -0.8791   -0.8947    5.5759 O   0  0  0  0  0  0  0  0  0  0  0  0
    0.0805   -0.7711    6.5234 C   0  0  0  0  0  0  0  0  0  0  0  0
   -0.1124   -0.7696    7.7353 O   0  0  0  0  0  0  0  0  0  0  0  0
    1.4830   -0.6237    5.9334 C   0  0  1  0  0  0  0  0  0  0  0  0
    1.8079   -1.6332    4.8047 C   0  0  0  0  0  0  0  0  0  0  0  0
    1.0357   -2.9445    4.8249 C   0  0  0  0  0  0  0  0  0  0  0  0
    2.6317   -1.4288    3.8862 N   0  0  0  0  0  0  0  0  0  0  0  0
    3.3588   -0.2236    3.7775 C   0  0  0  0  0  0  0  0  0  0  0  0
    4.2039   -0.1184    2.7465 C   0  0  0  0  0  0  0  0  0  0  0  0
    3.1524    0.9085    4.8027 C   0  0  1  0  0  0  0  0  0  0  0  0
    3.3606    2.3234    4.2293 C   0  0  0  0  0  0  0  0  0  0  0  0
    3.9581    3.1966    4.8710 O   0  0  0  0  0  0  0  0  0  0  0  0
    2.7670    2.4972    3.0473 O   0  0  0  0  0  0  0  0  0  0  0  0
    2.5953    3.7569    2.4489 C   0  0  0  0  0  0  0  0  0  0  0  0
    1.7418    0.8130    5.4211 C   0  0  1  0  0  0  0  0  0  0  0  0
    0.6613    1.2594    4.4772 C   0  0  0  0  0  0  0  0  0  0  0  0
    0.4410    1.0480    3.1199 C   0  0  0  0  0  0  0  0  0  0  0  0
   -0.7656    1.6191    2.7758 N   0  0  0  0  0  0  0  0  0  0  0  0
   -1.2051    2.1478    3.9070 C   0  0  0  0  0  0  0  0  0  0  0  0
   -2.6602    3.0684    4.1689 S   0  0  0  0  0  0  0  0  0  0  0  0
   -2.9736    3.5691    2.4698 C   0  0  0  0  0  0  0  0  0  0  0  0
   -0.3963    1.9441    4.9796 O   0  0  0  0  0  0  0  0  0  0  0  0
   -2.9781   -3.2844    6.6147 H   0  0  0  0  0  0  0  0  0  0  0  0
   -1.4449   -2.8715    7.3408 H   0  0  0  0  0  0  0  0  0  0  0  0
   -1.4614   -3.4469    5.7284 H   0  0  0  0  0  0  0  0  0  0  0  0
   -2.6969   -1.4243    4.9052 H   0  0  0  0  0  0  0  0  0  0  0  0
   -2.7351   -0.7077    6.4513 H   0  0  0  0  0  0  0  0  0  0  0  0
    1.0770   -3.4119    5.8038 H   0  0  0  0  0  0  0  0  0  0  0  0
    1.4348   -3.6554    4.1140 H   0  0  0  0  0  0  0  0  0  0  0  0
    0.0008   -2.7628    4.5557 H   0  0  0  0  0  0  0  0  0  0  0  0
    4.3308   -0.8927    2.0022 H   0  0  0  0  0  0  0  0  0  0  0  0
    2.1903   -0.8133    6.7454 H   0  0  0  0  0  0  0  0  0  0  0  0
    4.8022    0.7747    2.6422 H   0  0  0  0  0  0  0  0  0  0  0  0
    3.9002    0.7643    5.5856 H   0  0  0  0  0  0  0  0  0  0  0  0
    1.9843    3.6206    1.5577 H   0  0  0  0  0  0  0  0  0  0  0  0
    3.5402    4.1962    2.1364 H   0  0  0  0  0  0  0  0  0  0  0  0
    2.0635    4.4486    3.1003 H   0  0  0  0  0  0  0  0  0  0  0  0
    1.7153    1.4931    6.2880 H   0  0  0  0  0  0  0  0  0  0  0  0
    1.0381    0.5189    2.4221 H   0  0  0  0  0  0  0  0  0  0  0  0
   -3.8986    4.1554    2.4239 H   0  0  0  0  0  0  0  0  0  0  0  0
   -3.0793    2.6940    1.8178 H   0  0  0  0  0  0  0  0  0  0  0  0
   -2.1407    4.1883    2.1163 H   0  0  0  0  0  0  0  0  0  0  0  0
  1  2  1  0
  1 25  1  0
  1 26  1  0
  1 27  1  0
  2  3  1  0
  2 28  1  0
  2 29  1  0
  3  4  1  0
  4  5  2  0
  4  6  1  0
  6 17  1  0
  6 34  1  1
  6  7  1  0
  7  8  1  0
  7  9  2  0
  8 30  1  0
  8 31  1  0
  8 32  1  0
  9 10  1  0
 10 12  1  0
 10 11  2  0
 11 33  1  0
 11 35  1  0
 12 13  1  0
 12 17  1  0
 12 36  1  1
 13 14  2  0
 13 15  1  0
 15 16  1  0
 16 37  1  0
 16 38  1  0
 16 39  1  0
 17 18  1  0
 17 40  1  1
 18 24  1  0
 18 19  2  0
 19 20  1  0
 19 41  1  0
 20 21  2  0
 21 22  1  0
 21 24  1  0
 22 23  1  0
 23 42  1  0
 23 43  1  0
 23 44  1  0
M  END
>  <i_m_ct_stereo_status>  (139) 
1

>  <s_m_source_file>  (139) 
/var/tmp/pbs.5076255.sched01/tmpa1vw3d_c/4207j0axjo.sdf

>  <i_m_source_file_index>  (139) 
39

>  <i_lp_mmshare_version>  (139) 
48012

>  <i_f3d_flags>  (139) 
0

>  <s_epik_input>  (139) 
W0NIM11bQ0gyXU9DKD1PKUMxPUMoW0NIM10pTj1DKFtDSDNdKVtDQEBIXShDKD1PKU9bQ0gzXSlbQ0BIXTFjMltjSF1uYyhvMilTW0NIM10=

>  <s_epik_cmdline>  (139) 
J2VwaWtfcHl0aG9uJywgJy1waHQnLCAnMi4wJywgJy1waCcsICc3LjAnLCAnLXRuJywgJzgnLCAnLW1hJywgJzIwMCcsICctaW1hZScsICc8aW5maWxlLm1hZT4nLCAnLW9tYWUnLCAnPG91dGZpbGUubWFlPic=

>  <r_lp_tautomer_probability>  (139) 
0.499993

>  <r_epik_Ionization_Penalty>  (139) 
4.04322e-09

>  <r_epik_Ionization_Penalty_Charging>  (139) 
0

>  <r_epik_Ionization_Penalty_Neutral>  (139) 
4.04322e-09

>  <r_epik_State_Penalty>  (139) 
0.41068

>  <r_epik_Charging_Adjusted_Penalty>  (139) 
0.41068

>  <i_epik_Tot_Q>  (139) 
0

>  <i_epik_Tot_abs_Q>  (139) 
0

>  <s_epik_Chemistry_Notes>  (139) 
This compound has an ester and may undergo hydrolysis at high or low pH. This compound has an imine and may undergo hydrolysis.

>  <s_lp_Force_Field>  (139) 
OPLS3e

>  <r_lp_Energy>  (139) 
17.8468

>  <b_lp_Chiralities_Consistent>  (139) 
1

>  <s_lp_Variant>  (139) 
45:0-2

>  <s_i_glide_gridfile>  (139) 
pfpi4k_grid

>  <i_i_glide_lignum>  (139) 
39

>  <i_i_glide_rotatable_bonds>  (139) 
7

>  <r_i_docking_score>  (139) 
-1.35398

>  <r_i_glide_ligand_efficiency>  (139) 
-0.0564158

>  <r_i_glide_ligand_efficiency_sa>  (139) 
-0.162731

>  <r_i_glide_ligand_efficiency_ln>  (139) 
-0.32407

>  <r_i_glide_gscore>  (139) 
-1.35398

>  <r_i_glide_lipo>  (139) 
-0.0452629

>  <r_i_glide_hbond>  (139) 
-0.00842942

>  <r_i_glide_metal>  (139) 
-0

>  <r_i_glide_rewards>  (139) 
-1.00632

>  <r_i_glide_evdw>  (139) 
-16.3814

>  <r_i_glide_ecoul>  (139) 
-0.309748

>  <r_i_glide_erotb>  (139) 
0.614686

>  <r_i_glide_esite>  (139) 
-0.0431196

>  <r_i_glide_emodel>  (139) 
-13.7207

>  <r_i_glide_energy>  (139) 
-16.6912

>  <r_i_glide_einternal>  (139) 
3.57608

>  <r_i_glide_intrahb_reward>  (139) 
-0

>  <i_i_glide_confnum>  (139) 
1

>  <i_i_glide_posenum>  (139) 
13

>  <r_i_glide_eff_state_penalty>  (139) 
0

>  <ligand_id>  (139) 
45

>  <original_smiles>  (139) 
CCOC(=O)C1=C(C)N=C(C)C(C(=O)OC)C1c1cnc(SC)o1

>  <smiles>  (139) 
[H]C([H])=C1N=C(C([H])([H])[H])C([H])(C(=O)OC([H])([H])C([H])([H])[H])C([H])(c2oc(SC([H])([H])[H])nc2[H])C1([H])C(=O)OC([H])([H])[H]

$$$$
45:2:0
     RDKit          3D

 44 45  0  0  1  0  0  0  0  0999 V2000
    0.6474   -8.6203    2.4296 C   0  0  0  0  0  0  0  0  0  0  0  0
    0.1281   -7.3361    1.7634 C   0  0  0  0  0  0  0  0  0  0  0  0
    1.1553   -6.6597    1.0458 O   0  0  0  0  0  0  0  0  0  0  0  0
    2.0120   -5.8839    1.7247 C   0  0  0  0  0  0  0  0  0  0  0  0
    1.9231   -5.6555    2.9342 O   0  0  0  0  0  0  0  0  0  0  0  0
    3.1446   -5.2944    0.8456 C   0  0  2  0  0  0  0  0  0  0  0  0
    4.4794   -5.4201    1.5842 C   0  0  0  0  0  0  0  0  0  0  0  0
    5.2025   -6.7214    1.2880 C   0  0  0  0  0  0  0  0  0  0  0  0
    4.9991   -4.5214    2.3188 N   0  0  0  0  0  0  0  0  0  0  0  0
    4.3719   -3.2545    2.4844 C   0  0  0  0  0  0  0  0  0  0  0  0
    4.9363   -2.3802    3.3282 C   0  0  0  0  0  0  0  0  0  0  0  0
    3.0593   -2.9406    1.7597 C   0  0  1  0  0  0  0  0  0  0  0  0
    2.8366   -1.4132    1.5091 C   0  0  0  0  0  0  0  0  0  0  0  0
    3.5687   -0.7429    0.7810 O   0  0  0  0  0  0  0  0  0  0  0  0
    1.7563   -0.8670    2.1139 O   0  0  0  0  0  0  0  0  0  0  0  0
    1.0500   -1.5133    3.1555 C   0  0  0  0  0  0  0  0  0  0  0  0
    2.9034   -3.8016    0.4744 C   0  0  1  0  0  0  0  0  0  0  0  0
    3.8080   -3.3387   -0.6447 C   0  0  0  0  0  0  0  0  0  0  0  0
    3.6393   -2.8462   -1.9277 C   0  0  0  0  0  0  0  0  0  0  0  0
    4.8867   -2.4858   -2.4350 N   0  0  0  0  0  0  0  0  0  0  0  0
    5.7350   -2.7936   -1.4515 C   0  0  0  0  0  0  0  0  0  0  0  0
    7.4897   -2.6393   -1.3514 S   0  0  0  0  0  0  0  0  0  0  0  0
    7.7367   -2.7195    0.4598 C   0  0  0  0  0  0  0  0  0  0  0  0
    5.1369   -3.3362   -0.3772 O   0  0  0  0  0  0  0  0  0  0  0  0
   -0.1534   -9.1199    2.9731 H   0  0  0  0  0  0  0  0  0  0  0  0
    1.4472   -8.4231    3.1453 H   0  0  0  0  0  0  0  0  0  0  0  0
    1.0302   -9.3209    1.6876 H   0  0  0  0  0  0  0  0  0  0  0  0
   -0.6685   -7.5752    1.0620 H   0  0  0  0  0  0  0  0  0  0  0  0
   -0.3038   -6.6763    2.5194 H   0  0  0  0  0  0  0  0  0  0  0  0
    5.3269   -6.8268    0.2128 H   0  0  0  0  0  0  0  0  0  0  0  0
    4.6215   -7.5725    1.6390 H   0  0  0  0  0  0  0  0  0  0  0  0
    6.1897   -6.7489    1.7473 H   0  0  0  0  0  0  0  0  0  0  0  0
    5.8361   -2.6112    3.8637 H   0  0  0  0  0  0  0  0  0  0  0  0
    3.1895   -5.8797   -0.0703 H   0  0  0  0  0  0  0  0  0  0  0  0
    4.4877   -1.4140    3.5330 H   0  0  0  0  0  0  0  0  0  0  0  0
    2.2906   -3.2897    2.4356 H   0  0  0  0  0  0  0  0  0  0  0  0
    0.2691   -0.8560    3.5375 H   0  0  0  0  0  0  0  0  0  0  0  0
    1.7283   -1.7288    3.9775 H   0  0  0  0  0  0  0  0  0  0  0  0
    0.6267   -2.4546    2.7945 H   0  0  0  0  0  0  0  0  0  0  0  0
    1.8908   -3.7197    0.1011 H   0  0  0  0  0  0  0  0  0  0  0  0
    2.7220   -2.6582   -2.4593 H   0  0  0  0  0  0  0  0  0  0  0  0
    8.8001   -2.6350    0.7013 H   0  0  0  0  0  0  0  0  0  0  0  0
    7.3734   -3.6578    0.8841 H   0  0  0  0  0  0  0  0  0  0  0  0
    7.2087   -1.8991    0.9474 H   0  0  0  0  0  0  0  0  0  0  0  0
  1  2  1  0
  1 25  1  0
  1 26  1  0
  1 27  1  0
  2  3  1  0
  2 28  1  0
  2 29  1  0
  3  4  1  0
  4  5  2  0
  4  6  1  0
  6 17  1  0
  6 34  1  6
  6  7  1  0
  7  8  1  0
  7  9  2  0
  8 30  1  0
  8 31  1  0
  8 32  1  0
  9 10  1  0
 10 12  1  0
 10 11  2  0
 11 33  1  0
 11 35  1  0
 12 13  1  0
 12 17  1  0
 12 36  1  1
 13 14  2  0
 13 15  1  0
 15 16  1  0
 16 37  1  0
 16 38  1  0
 16 39  1  0
 17 18  1  0
 17 40  1  6
 18 24  1  0
 18 19  2  0
 19 20  1  0
 19 41  1  0
 20 21  2  0
 21 22  1  0
 21 24  1  0
 22 23  1  0
 23 42  1  0
 23 43  1  0
 23 44  1  0
M  END
>  <i_m_ct_stereo_status>  (140) 
1

>  <s_m_source_file>  (140) 
/var/tmp/pbs.5076255.sched01/tmpa1vw3d_c/4207j0axjo.sdf

>  <i_m_source_file_index>  (140) 
40

>  <i_lp_mmshare_version>  (140) 
48012

>  <i_f3d_flags>  (140) 
0

>  <s_epik_input>  (140) 
W0NIM11bQ0gyXU9DKD1PKUMxPUMoW0NIM10pTj1DKFtDSDNdKVtDQEBIXShDKD1PKU9bQ0gzXSlbQ0BIXTFjMltjSF1uYyhvMilTW0NIM10=

>  <s_epik_cmdline>  (140) 
J2VwaWtfcHl0aG9uJywgJy1waHQnLCAnMi4wJywgJy1waCcsICc3LjAnLCAnLXRuJywgJzgnLCAnLW1hJywgJzIwMCcsICctaW1hZScsICc8aW5maWxlLm1hZT4nLCAnLW9tYWUnLCAnPG91dGZpbGUubWFlPic=

>  <r_lp_tautomer_probability>  (140) 
0.499993

>  <r_epik_Ionization_Penalty>  (140) 
4.04322e-09

>  <r_epik_Ionization_Penalty_Charging>  (140) 
0

>  <r_epik_Ionization_Penalty_Neutral>  (140) 
4.04322e-09

>  <r_epik_State_Penalty>  (140) 
0.41068

>  <r_epik_Charging_Adjusted_Penalty>  (140) 
0.41068

>  <i_epik_Tot_Q>  (140) 
0

>  <i_epik_Tot_abs_Q>  (140) 
0

>  <s_epik_Chemistry_Notes>  (140) 
This compound has an ester and may undergo hydrolysis at high or low pH. This compound has an imine and may undergo hydrolysis.

>  <s_lp_Force_Field>  (140) 
OPLS3e

>  <r_lp_Energy>  (140) 
13.1464

>  <b_lp_Chiralities_Consistent>  (140) 
1

>  <s_lp_Variant>  (140) 
45:0-3

>  <s_i_glide_gridfile>  (140) 
pfpi4k_grid

>  <i_i_glide_lignum>  (140) 
40

>  <i_i_glide_rotatable_bonds>  (140) 
7

>  <r_i_docking_score>  (140) 
-2.72025

>  <r_i_glide_ligand_efficiency>  (140) 
-0.113344

>  <r_i_glide_ligand_efficiency_sa>  (140) 
-0.32694

>  <r_i_glide_ligand_efficiency_ln>  (140) 
-0.65108

>  <r_i_glide_gscore>  (140) 
-2.72025

>  <r_i_glide_lipo>  (140) 
-0.400335

>  <r_i_glide_hbond>  (140) 
-0.0212692

>  <r_i_glide_metal>  (140) 
-0

>  <r_i_glide_rewards>  (140) 
-1.04517

>  <r_i_glide_evdw>  (140) 
-28.2639

>  <r_i_glide_ecoul>  (140) 
-2.50273

>  <r_i_glide_erotb>  (140) 
0.614686

>  <r_i_glide_esite>  (140) 
-0.079551

>  <r_i_glide_emodel>  (140) 
-31.4973

>  <r_i_glide_energy>  (140) 
-30.7667

>  <r_i_glide_einternal>  (140) 
8.46221

>  <r_i_glide_intrahb_reward>  (140) 
-0

>  <i_i_glide_confnum>  (140) 
3

>  <i_i_glide_posenum>  (140) 
38

>  <r_i_glide_eff_state_penalty>  (140) 
0

>  <ligand_id>  (140) 
45

>  <original_smiles>  (140) 
CCOC(=O)C1=C(C)N=C(C)C(C(=O)OC)C1c1cnc(SC)o1

>  <smiles>  (140) 
[H]C([H])=C1N=C(C([H])([H])[H])C([H])(C(=O)OC([H])([H])C([H])([H])[H])C([H])(c2oc(SC([H])([H])[H])nc2[H])C1([H])C(=O)OC([H])([H])[H]

$$$$
45:2:1
     RDKit          3D

 44 45  0  0  1  0  0  0  0  0999 V2000
   -0.8005   -7.0391    2.6060 C   0  0  0  0  0  0  0  0  0  0  0  0
    0.2515   -7.6446    1.6646 C   0  0  0  0  0  0  0  0  0  0  0  0
    1.0863   -6.6891    1.0064 O   0  0  0  0  0  0  0  0  0  0  0  0
    2.0043   -6.0231    1.7301 C   0  0  0  0  0  0  0  0  0  0  0  0
    1.9998   -5.9419    2.9592 O   0  0  0  0  0  0  0  0  0  0  0  0
    3.1049   -5.3715    0.8648 C   0  0  2  0  0  0  0  0  0  0  0  0
    4.4299   -5.5750    1.6015 C   0  0  0  0  0  0  0  0  0  0  0  0
    5.1239   -6.8726    1.2465 C   0  0  0  0  0  0  0  0  0  0  0  0
    4.9321   -4.7153    2.4048 N   0  0  0  0  0  0  0  0  0  0  0  0
    4.3085   -3.4676    2.6470 C   0  0  0  0  0  0  0  0  0  0  0  0
    4.9156   -2.6480    3.5360 C   0  0  0  0  0  0  0  0  0  0  0  0
    3.0280   -3.0547    1.8914 C   0  0  1  0  0  0  0  0  0  0  0  0
    2.8668   -1.5359    1.6662 C   0  0  0  0  0  0  0  0  0  0  0  0
    3.7534   -0.8463    1.1632 O   0  0  0  0  0  0  0  0  0  0  0  0
    1.6863   -1.0850    2.0773 O   0  0  0  0  0  0  0  0  0  0  0  0
    1.4246    0.2947    1.9090 C   0  0  0  0  0  0  0  0  0  0  0  0
    2.8755   -3.8632    0.5675 C   0  0  1  0  0  0  0  0  0  0  0  0
    3.7888   -3.3751   -0.5300 C   0  0  0  0  0  0  0  0  0  0  0  0
    3.6432   -2.8584   -1.7800 C   0  0  0  0  0  0  0  0  0  0  0  0
    4.8997   -2.4927   -2.2582 N   0  0  0  0  0  0  0  0  0  0  0  0
    5.7442   -2.8201   -1.2824 C   0  0  0  0  0  0  0  0  0  0  0  0
    7.4907   -2.6569   -1.1515 S   0  0  0  0  0  0  0  0  0  0  0  0
    7.7891   -3.4572    0.4640 C   0  0  0  0  0  0  0  0  0  0  0  0
    5.1171   -3.3654   -0.2226 O   0  0  0  0  0  0  0  0  0  0  0  0
   -1.3992   -7.8224    3.0626 H   0  0  0  0  0  0  0  0  0  0  0  0
   -1.4624   -6.4117    2.0291 H   0  0  0  0  0  0  0  0  0  0  0  0
   -0.3794   -6.4592    3.4263 H   0  0  0  0  0  0  0  0  0  0  0  0
    0.8872   -8.3609    2.1908 H   0  0  0  0  0  0  0  0  0  0  0  0
   -0.2808   -8.1941    0.8929 H   0  0  0  0  0  0  0  0  0  0  0  0
    5.2449   -6.9444    0.1715 H   0  0  0  0  0  0  0  0  0  0  0  0
    4.5261   -7.7197    1.5617 H   0  0  0  0  0  0  0  0  0  0  0  0
    6.1014   -6.9441    1.7076 H   0  0  0  0  0  0  0  0  0  0  0  0
    5.8312   -2.9405    4.0057 H   0  0  0  0  0  0  0  0  0  0  0  0
    3.1352   -5.9055   -0.0886 H   0  0  0  0  0  0  0  0  0  0  0  0
    4.5174   -1.6779    3.7910 H   0  0  0  0  0  0  0  0  0  0  0  0
    2.2114   -3.3535    2.5430 H   0  0  0  0  0  0  0  0  0  0  0  0
    0.4258    0.5336    2.2777 H   0  0  0  0  0  0  0  0  0  0  0  0
    1.4907    0.5686    0.8529 H   0  0  0  0  0  0  0  0  0  0  0  0
    2.1625    0.8857    2.4600 H   0  0  0  0  0  0  0  0  0  0  0  0
    1.8492   -3.7576    0.2075 H   0  0  0  0  0  0  0  0  0  0  0  0
    2.7369   -2.6906   -2.3478 H   0  0  0  0  0  0  0  0  0  0  0  0
    8.8553   -3.4631    0.7124 H   0  0  0  0  0  0  0  0  0  0  0  0
    7.4404   -4.4936    0.4540 H   0  0  0  0  0  0  0  0  0  0  0  0
    7.2618   -2.9339    1.2661 H   0  0  0  0  0  0  0  0  0  0  0  0
  1  2  1  0
  1 25  1  0
  1 26  1  0
  1 27  1  0
  2  3  1  0
  2 28  1  0
  2 29  1  0
  3  4  1  0
  4  5  2  0
  4  6  1  0
  6 17  1  0
  6 34  1  6
  6  7  1  0
  7  8  1  0
  7  9  2  0
  8 30  1  0
  8 31  1  0
  8 32  1  0
  9 10  1  0
 10 12  1  0
 10 11  2  0
 11 33  1  0
 11 35  1  0
 12 13  1  0
 12 17  1  0
 12 36  1  1
 13 14  2  0
 13 15  1  0
 15 16  1  0
 16 37  1  0
 16 38  1  0
 16 39  1  0
 17 18  1  0
 17 40  1  6
 18 24  1  0
 18 19  2  0
 19 20  1  0
 19 41  1  0
 20 21  2  0
 21 22  1  0
 21 24  1  0
 22 23  1  0
 23 42  1  0
 23 43  1  0
 23 44  1  0
M  END
>  <i_m_ct_stereo_status>  (141) 
1

>  <s_m_source_file>  (141) 
/var/tmp/pbs.5076255.sched01/tmpa1vw3d_c/4207j0axjo.sdf

>  <i_m_source_file_index>  (141) 
40

>  <i_lp_mmshare_version>  (141) 
48012

>  <i_f3d_flags>  (141) 
0

>  <s_epik_input>  (141) 
W0NIM11bQ0gyXU9DKD1PKUMxPUMoW0NIM10pTj1DKFtDSDNdKVtDQEBIXShDKD1PKU9bQ0gzXSlbQ0BIXTFjMltjSF1uYyhvMilTW0NIM10=

>  <s_epik_cmdline>  (141) 
J2VwaWtfcHl0aG9uJywgJy1waHQnLCAnMi4wJywgJy1waCcsICc3LjAnLCAnLXRuJywgJzgnLCAnLW1hJywgJzIwMCcsICctaW1hZScsICc8aW5maWxlLm1hZT4nLCAnLW9tYWUnLCAnPG91dGZpbGUubWFlPic=

>  <r_lp_tautomer_probability>  (141) 
0.499993

>  <r_epik_Ionization_Penalty>  (141) 
4.04322e-09

>  <r_epik_Ionization_Penalty_Charging>  (141) 
0

>  <r_epik_Ionization_Penalty_Neutral>  (141) 
4.04322e-09

>  <r_epik_State_Penalty>  (141) 
0.41068

>  <r_epik_Charging_Adjusted_Penalty>  (141) 
0.41068

>  <i_epik_Tot_Q>  (141) 
0

>  <i_epik_Tot_abs_Q>  (141) 
0

>  <s_epik_Chemistry_Notes>  (141) 
This compound has an ester and may undergo hydrolysis at high or low pH. This compound has an imine and may undergo hydrolysis.

>  <s_lp_Force_Field>  (141) 
OPLS3e

>  <r_lp_Energy>  (141) 
13.1464

>  <b_lp_Chiralities_Consistent>  (141) 
1

>  <s_lp_Variant>  (141) 
45:0-3

>  <s_i_glide_gridfile>  (141) 
pfpi4k_grid

>  <i_i_glide_lignum>  (141) 
40

>  <i_i_glide_rotatable_bonds>  (141) 
7

>  <r_i_docking_score>  (141) 
-2.613

>  <r_i_glide_ligand_efficiency>  (141) 
-0.108875

>  <r_i_glide_ligand_efficiency_sa>  (141) 
-0.31405

>  <r_i_glide_ligand_efficiency_ln>  (141) 
-0.625411

>  <r_i_glide_gscore>  (141) 
-2.613

>  <r_i_glide_lipo>  (141) 
-0.392547

>  <r_i_glide_hbond>  (141) 
-0.0272007

>  <r_i_glide_metal>  (141) 
-0

>  <r_i_glide_rewards>  (141) 
-1.04958

>  <r_i_glide_evdw>  (141) 
-27.7362

>  <r_i_glide_ecoul>  (141) 
-2.03245

>  <r_i_glide_erotb>  (141) 
0.614686

>  <r_i_glide_esite>  (141) 
-0.0666844

>  <r_i_glide_emodel>  (141) 
-32.6569

>  <r_i_glide_energy>  (141) 
-29.7686

>  <r_i_glide_einternal>  (141) 
3.50644

>  <r_i_glide_intrahb_reward>  (141) 
-0

>  <i_i_glide_confnum>  (141) 
3

>  <i_i_glide_posenum>  (141) 
2

>  <r_i_glide_eff_state_penalty>  (141) 
0

>  <ligand_id>  (141) 
45

>  <original_smiles>  (141) 
CCOC(=O)C1=C(C)N=C(C)C(C(=O)OC)C1c1cnc(SC)o1

>  <smiles>  (141) 
[H]C([H])=C1N=C(C([H])([H])[H])C([H])(C(=O)OC([H])([H])C([H])([H])[H])C([H])(c2oc(SC([H])([H])[H])nc2[H])C1([H])C(=O)OC([H])([H])[H]

$$$$
45:2:2
     RDKit          3D

 44 45  0  0  1  0  0  0  0  0999 V2000
    0.8578   -8.3701    2.0786 C   0  0  0  0  0  0  0  0  0  0  0  0
    0.3795   -7.1142    1.3283 C   0  0  0  0  0  0  0  0  0  0  0  0
    1.4753   -6.3238    0.8769 O   0  0  0  0  0  0  0  0  0  0  0  0
    2.1685   -5.6094    1.7870 C   0  0  0  0  0  0  0  0  0  0  0  0
    1.8382   -5.5023    2.9717 O   0  0  0  0  0  0  0  0  0  0  0  0
    3.4306   -4.9337    1.2039 C   0  0  2  0  0  0  0  0  0  0  0  0
    4.5890   -5.1475    2.1840 C   0  0  0  0  0  0  0  0  0  0  0  0
    5.4025   -6.3932    1.9243 C   0  0  0  0  0  0  0  0  0  0  0  0
    4.8998   -4.3003    3.1006 N   0  0  0  0  0  0  0  0  0  0  0  0
    4.2297   -3.0753    3.2399 C   0  0  0  0  0  0  0  0  0  0  0  0
    4.6376   -2.2820    4.2669 C   0  0  0  0  0  0  0  0  0  0  0  0
    3.1131   -2.6523    2.2515 C   0  0  1  0  0  0  0  0  0  0  0  0
    2.9289   -1.1371    2.0206 C   0  0  0  0  0  0  0  0  0  0  0  0
    3.8708   -0.3745    1.7746 O   0  0  0  0  0  0  0  0  0  0  0  0
    1.6537   -0.7602    2.0790 O   0  0  0  0  0  0  0  0  0  0  0  0
    1.3697    0.6106    1.8528 C   0  0  0  0  0  0  0  0  0  0  0  0
    3.2534   -3.4253    0.9059 C   0  0  1  0  0  0  0  0  0  0  0  0
    4.3432   -2.8727    0.0126 C   0  0  0  0  0  0  0  0  0  0  0  0
    4.4041   -2.2182   -1.1827 C   0  0  0  0  0  0  0  0  0  0  0  0
    5.7269   -1.8537   -1.4382 N   0  0  0  0  0  0  0  0  0  0  0  0
    6.3979   -2.2917   -0.3742 C   0  0  0  0  0  0  0  0  0  0  0  0
    8.0969   -2.2206    0.0307 S   0  0  0  0  0  0  0  0  0  0  0  0
    8.6155   -3.7465   -0.7856 C   0  0  0  0  0  0  0  0  0  0  0  0
    5.6099   -2.9348    0.5207 O   0  0  0  0  0  0  0  0  0  0  0  0
    0.0098   -8.9681    2.4072 H   0  0  0  0  0  0  0  0  0  0  0  0
    1.4395   -8.1343    2.9704 H   0  0  0  0  0  0  0  0  0  0  0  0
    1.4813   -8.9937    1.4381 H   0  0  0  0  0  0  0  0  0  0  0  0
   -0.2066   -7.4026    0.4598 H   0  0  0  0  0  0  0  0  0  0  0  0
   -0.2757   -6.5152    1.9613 H   0  0  0  0  0  0  0  0  0  0  0  0
    5.7509   -6.4176    0.8959 H   0  0  0  0  0  0  0  0  0  0  0  0
    4.8030   -7.2845    2.0768 H   0  0  0  0  0  0  0  0  0  0  0  0
    6.2799   -6.4533    2.5644 H   0  0  0  0  0  0  0  0  0  0  0  0
    5.4708   -2.5779    4.8795 H   0  0  0  0  0  0  0  0  0  0  0  0
    3.6820   -5.4400    0.2668 H   0  0  0  0  0  0  0  0  0  0  0  0
    4.1630   -1.3370    4.4915 H   0  0  0  0  0  0  0  0  0  0  0  0
    2.1905   -2.9850    2.7014 H   0  0  0  0  0  0  0  0  0  0  0  0
    0.2918    0.7898    1.8929 H   0  0  0  0  0  0  0  0  0  0  0  0
    1.7503    0.9174    0.8745 H   0  0  0  0  0  0  0  0  0  0  0  0
    1.8729    1.2180    2.6134 H   0  0  0  0  0  0  0  0  0  0  0  0
    2.3067   -3.3359    0.3587 H   0  0  0  0  0  0  0  0  0  0  0  0
    3.5999   -1.9320   -1.8431 H   0  0  0  0  0  0  0  0  0  0  0  0
    9.6953   -3.8627   -0.6985 H   0  0  0  0  0  0  0  0  0  0  0  0
    8.3612   -3.6872   -1.8451 H   0  0  0  0  0  0  0  0  0  0  0  0
    8.1247   -4.6099   -0.3287 H   0  0  0  0  0  0  0  0  0  0  0  0
  1  2  1  0
  1 25  1  0
  1 26  1  0
  1 27  1  0
  2  3  1  0
  2 28  1  0
  2 29  1  0
  3  4  1  0
  4  5  2  0
  4  6  1  0
  6 17  1  0
  6 34  1  6
  6  7  1  0
  7  8  1  0
  7  9  2  0
  8 30  1  0
  8 31  1  0
  8 32  1  0
  9 10  1  0
 10 12  1  0
 10 11  2  0
 11 33  1  0
 11 35  1  0
 12 13  1  0
 12 17  1  0
 12 36  1  1
 13 14  2  0
 13 15  1  0
 15 16  1  0
 16 37  1  0
 16 38  1  0
 16 39  1  0
 17 18  1  0
 17 40  1  6
 18 24  1  0
 18 19  2  0
 19 20  1  0
 19 41  1  0
 20 21  2  0
 21 22  1  0
 21 24  1  0
 22 23  1  0
 23 42  1  0
 23 43  1  0
 23 44  1  0
M  END
>  <i_m_ct_stereo_status>  (142) 
1

>  <s_m_source_file>  (142) 
/var/tmp/pbs.5076255.sched01/tmpa1vw3d_c/4207j0axjo.sdf

>  <i_m_source_file_index>  (142) 
40

>  <i_lp_mmshare_version>  (142) 
48012

>  <i_f3d_flags>  (142) 
0

>  <s_epik_input>  (142) 
W0NIM11bQ0gyXU9DKD1PKUMxPUMoW0NIM10pTj1DKFtDSDNdKVtDQEBIXShDKD1PKU9bQ0gzXSlbQ0BIXTFjMltjSF1uYyhvMilTW0NIM10=

>  <s_epik_cmdline>  (142) 
J2VwaWtfcHl0aG9uJywgJy1waHQnLCAnMi4wJywgJy1waCcsICc3LjAnLCAnLXRuJywgJzgnLCAnLW1hJywgJzIwMCcsICctaW1hZScsICc8aW5maWxlLm1hZT4nLCAnLW9tYWUnLCAnPG91dGZpbGUubWFlPic=

>  <r_lp_tautomer_probability>  (142) 
0.499993

>  <r_epik_Ionization_Penalty>  (142) 
4.04322e-09

>  <r_epik_Ionization_Penalty_Charging>  (142) 
0

>  <r_epik_Ionization_Penalty_Neutral>  (142) 
4.04322e-09

>  <r_epik_State_Penalty>  (142) 
0.41068

>  <r_epik_Charging_Adjusted_Penalty>  (142) 
0.41068

>  <i_epik_Tot_Q>  (142) 
0

>  <i_epik_Tot_abs_Q>  (142) 
0

>  <s_epik_Chemistry_Notes>  (142) 
This compound has an ester and may undergo hydrolysis at high or low pH. This compound has an imine and may undergo hydrolysis.

>  <s_lp_Force_Field>  (142) 
OPLS3e

>  <r_lp_Energy>  (142) 
13.1464

>  <b_lp_Chiralities_Consistent>  (142) 
1

>  <s_lp_Variant>  (142) 
45:0-3

>  <s_i_glide_gridfile>  (142) 
pfpi4k_grid

>  <i_i_glide_lignum>  (142) 
40

>  <i_i_glide_rotatable_bonds>  (142) 
7

>  <r_i_docking_score>  (142) 
-2.2648

>  <r_i_glide_ligand_efficiency>  (142) 
-0.0943668

>  <r_i_glide_ligand_efficiency_sa>  (142) 
-0.272201

>  <r_i_glide_ligand_efficiency_ln>  (142) 
-0.542071

>  <r_i_glide_gscore>  (142) 
-2.2648

>  <r_i_glide_lipo>  (142) 
-0.115763

>  <r_i_glide_hbond>  (142) 
-0.0719152

>  <r_i_glide_metal>  (142) 
-0

>  <r_i_glide_rewards>  (142) 
-1.01822

>  <r_i_glide_evdw>  (142) 
-28.032

>  <r_i_glide_ecoul>  (142) 
-1.48576

>  <r_i_glide_erotb>  (142) 
0.614686

>  <r_i_glide_esite>  (142) 
-0.0491289

>  <r_i_glide_emodel>  (142) 
-31.6744

>  <r_i_glide_energy>  (142) 
-29.5178

>  <r_i_glide_einternal>  (142) 
3.34827

>  <r_i_glide_intrahb_reward>  (142) 
-0

>  <i_i_glide_confnum>  (142) 
3

>  <i_i_glide_posenum>  (142) 
39

>  <r_i_glide_eff_state_penalty>  (142) 
0

>  <ligand_id>  (142) 
45

>  <original_smiles>  (142) 
CCOC(=O)C1=C(C)N=C(C)C(C(=O)OC)C1c1cnc(SC)o1

>  <smiles>  (142) 
[H]C([H])=C1N=C(C([H])([H])[H])C([H])(C(=O)OC([H])([H])C([H])([H])[H])C([H])(c2oc(SC([H])([H])[H])nc2[H])C1([H])C(=O)OC([H])([H])[H]

$$$$
47:0:0
     RDKit          3D

 46 50  0  0  1  0  0  0  0  0999 V2000
    8.8776   -1.1922    0.4024 C   0  0  0  0  0  0  0  0  0  0  0  0
    7.4387   -1.3282    0.4593 O   0  0  0  0  0  0  0  0  0  0  0  0
    6.9506   -2.6383    0.7240 C   0  0  2  0  0  0  0  0  0  0  0  0
    7.6795   -3.7166   -0.0588 C   0  0  1  0  0  0  0  0  0  0  0  0
    6.9456   -4.9582    0.3953 C   0  0  0  0  0  0  0  0  0  0  0  0
    5.4793   -4.5229    0.3825 C   0  0  2  0  0  0  0  0  0  0  0  0
    4.8101   -5.0485   -0.8822 C   0  0  0  0  0  0  0  0  0  0  0  0
    5.1961   -4.2669   -2.1048 C   0  0  2  0  0  0  0  0  0  0  0  0
    6.4060   -3.4388   -2.3791 C   0  0  2  0  0  0  0  0  0  0  0  0
    7.7162   -3.4836   -1.6049 C   0  0  0  0  0  0  0  0  0  0  0  0
    5.1173   -2.7717   -2.0055 C   0  0  1  0  0  0  0  0  0  0  0  0
    4.0501   -2.2198   -2.8886 C   0  0  0  0  0  0  0  0  0  0  0  0
    2.8568   -2.1506   -1.9483 C   0  0  1  0  0  0  0  0  0  0  0  0
    1.7909   -3.2281   -2.2023 C   0  0  0  0  0  0  0  0  0  0  0  0
    3.3903   -2.3215   -0.6202 O   0  0  0  0  0  0  0  0  0  0  0  0
    4.7733   -2.1762   -0.6172 C   0  0  2  0  0  0  0  0  0  0  0  0
    5.1256   -0.8095   -0.6081 O   0  0  0  0  0  0  0  0  0  0  0  0
    4.5999    0.0200    0.4556 C   0  0  0  0  0  0  0  0  0  0  0  0
    5.4201   -2.9632    0.6051 C   0  0  2  0  0  0  0  0  0  0  0  0
    4.6062   -2.7476    1.9382 C   0  0  0  0  0  0  0  0  0  0  0  0
    9.1301   -0.1643    0.1253 H   0  0  0  0  0  0  0  0  0  0  0  0
    9.3673   -1.7996   -0.3633 H   0  0  0  0  0  0  0  0  0  0  0  0
    9.4184   -1.4907    1.3205 H   0  0  0  0  0  0  0  0  0  0  0  0
    7.1723   -2.8285    1.7632 H   0  0  0  0  0  0  0  0  0  0  0  0
    8.7011   -3.8163    0.3044 H   0  0  0  0  0  0  0  0  0  0  0  0
    7.1669   -5.8246   -0.2091 H   0  0  0  0  0  0  0  0  0  0  0  0
    7.2456   -5.2122    1.4186 H   0  0  0  0  0  0  0  0  0  0  0  0
    4.9909   -5.0400    1.2082 H   0  0  0  0  0  0  0  0  0  0  0  0
    5.0186   -6.1020   -1.0355 H   0  0  0  0  0  0  0  0  0  0  0  0
    3.7370   -4.9634   -0.7391 H   0  0  0  0  0  0  0  0  0  0  0  0
    4.8114   -4.7177   -3.0213 H   0  0  0  0  0  0  0  0  0  0  0  0
    6.6005   -3.3496   -3.4497 H   0  0  0  0  0  0  0  0  0  0  0  0
    8.1954   -2.5274   -1.8780 H   0  0  0  0  0  0  0  0  0  0  0  0
    8.3997   -4.1963   -2.0287 H   0  0  0  0  0  0  0  0  0  0  0  0
    4.3174   -1.2423   -3.2991 H   0  0  0  0  0  0  0  0  0  0  0  0
    3.8546   -2.8713   -3.7569 H   0  0  0  0  0  0  0  0  0  0  0  0
    2.4165   -1.1708   -2.1039 H   0  0  0  0  0  0  0  0  0  0  0  0
    1.2968   -3.0817   -3.1621 H   0  0  0  0  0  0  0  0  0  0  0  0
    1.0180   -3.2059   -1.4409 H   0  0  0  0  0  0  0  0  0  0  0  0
    2.1972   -4.2333   -2.1831 H   0  0  0  0  0  0  0  0  0  0  0  0
    5.1154    0.9948    0.5067 H   0  0  0  0  0  0  0  0  0  0  0  0
    4.8990   -0.0889    1.4863 H   0  0  0  0  0  0  0  0  0  0  0  0
    3.5309    0.1731    0.3975 H   0  0  0  0  0  0  0  0  0  0  0  0
    3.5697   -3.1023    1.8094 H   0  0  0  0  0  0  0  0  0  0  0  0
    4.5127   -1.7440    2.3060 H   0  0  0  0  0  0  0  0  0  0  0  0
    5.0943   -3.2522    2.7860 H   0  0  0  0  0  0  0  0  0  0  0  0
  1  2  1  0
  1 21  1  0
  1 22  1  0
  1 23  1  0
  2  3  1  0
  3 19  1  0
  3  4  1  0
  3 24  1  1
  4 10  1  0
  4  5  1  0
  4 25  1  1
  5  6  1  0
  5 26  1  0
  5 27  1  0
  6 19  1  0
  6  7  1  0
  6 28  1  1
  7  8  1  0
  7 29  1  0
  7 30  1  0
  8 11  1  0
  8  9  1  0
  8 31  1  6
  9 10  1  0
  9 11  1  0
  9 32  1  6
 10 33  1  0
 10 34  1  0
 11 16  1  0
 11 12  1  6
 12 13  1  0
 12 35  1  0
 12 36  1  0
 13 14  1  0
 13 15  1  0
 13 37  1  1
 14 38  1  0
 14 39  1  0
 14 40  1  0
 15 16  1  0
 16 17  1  6
 16 19  1  0
 17 18  1  0
 18 41  1  0
 18 42  1  0
 18 43  1  0
 19 20  1  1
 20 44  1  0
 20 45  1  0
 20 46  1  0
M  END
>  <i_m_ct_stereo_status>  (143) 
1

>  <s_m_source_file>  (143) 
/var/tmp/pbs.5076255.sched01/tmpa1vw3d_c/4207j0axjo.sdf

>  <i_m_source_file_index>  (143) 
42

>  <i_lp_mmshare_version>  (143) 
48012

>  <i_f3d_flags>  (143) 
0

>  <s_epik_input>  (143) 
W0NIMl0xW0NAQEhdKFtDSDNdKU9bQ0BAXTIoT1tDSDNdKVtDQEBdKFtDSDNdKShbQ0BIXShbQ0gyXTMpW0NIMl00KVtDQEhdKE9bQ0gzXSlbQ0BASF0zW0NIMl1bQ0BIXTVbQ0BASF00W0NAQF0xMjU=

>  <s_epik_cmdline>  (143) 
J2VwaWtfcHl0aG9uJywgJy1waHQnLCAnMi4wJywgJy1waCcsICc3LjAnLCAnLXRuJywgJzgnLCAnLW1hJywgJzIwMCcsICctaW1hZScsICc8aW5maWxlLm1hZT4nLCAnLW9tYWUnLCAnPG91dGZpbGUubWFlPic=

>  <r_lp_tautomer_probability>  (143) 
1

>  <r_epik_Ionization_Penalty>  (143) 
1.88338e-11

>  <r_epik_Ionization_Penalty_Charging>  (143) 
0

>  <r_epik_Ionization_Penalty_Neutral>  (143) 
1.88338e-11

>  <r_epik_State_Penalty>  (143) 
-0

>  <r_epik_Charging_Adjusted_Penalty>  (143) 
0

>  <i_epik_Tot_Q>  (143) 
0

>  <i_epik_Tot_abs_Q>  (143) 
0

>  <s_lp_Force_Field>  (143) 
OPLS3e

>  <r_lp_Energy>  (143) 
59.547

>  <b_lp_Chiralities_Consistent>  (143) 
1

>  <s_lp_Variant>  (143) 
47:0-1

>  <s_i_glide_gridfile>  (143) 
pfpi4k_grid

>  <i_i_glide_lignum>  (143) 
42

>  <i_i_glide_rotatable_bonds>  (143) 
2

>  <r_i_docking_score>  (143) 
-2.99141

>  <r_i_glide_ligand_efficiency>  (143) 
-0.14957

>  <r_i_glide_ligand_efficiency_sa>  (143) 
-0.405996

>  <r_i_glide_ligand_efficiency_ln>  (143) 
-0.74865

>  <r_i_glide_gscore>  (143) 
-2.99141

>  <r_i_glide_lipo>  (143) 
-1.03403

>  <r_i_glide_hbond>  (143) 
-0.0319949

>  <r_i_glide_metal>  (143) 
-0

>  <r_i_glide_rewards>  (143) 
-1.511

>  <r_i_glide_evdw>  (143) 
-8.06251

>  <r_i_glide_ecoul>  (143) 
-0.345356

>  <r_i_glide_erotb>  (143) 
0

>  <r_i_glide_esite>  (143) 
-0.0187063

>  <r_i_glide_emodel>  (143) 
-3.78143

>  <r_i_glide_energy>  (143) 
-8.40786

>  <r_i_glide_einternal>  (143) 
6.53655

>  <r_i_glide_intrahb_reward>  (143) 
-0

>  <i_i_glide_confnum>  (143) 
2

>  <i_i_glide_posenum>  (143) 
36

>  <r_i_glide_eff_state_penalty>  (143) 
0

>  <ligand_id>  (143) 
47

>  <original_smiles>  (143) 
COC1C2CC3CC4C(C2)C42CC(C)OC2(OC)C31C

>  <smiles>  (143) 
[H]C([H])([H])OC1([H])C2([H])C([H])([H])C3([H])C([H])([H])C4([H])C([H])(C2([H])[H])C42C([H])([H])C([H])(C([H])([H])[H])OC2(OC([H])([H])[H])C13C([H])([H])[H]

$$$$
47:0:1
     RDKit          3D

 46 50  0  0  1  0  0  0  0  0999 V2000
    3.7890   -6.8360    3.1350 C   0  0  0  0  0  0  0  0  0  0  0  0
    3.2894   -5.5207    2.9666 O   0  0  0  0  0  0  0  0  0  0  0  0
    4.2567   -4.4824    3.0927 C   0  0  2  0  0  0  0  0  0  0  0  0
    3.6288   -3.1935    3.6245 C   0  0  1  0  0  0  0  0  0  0  0  0
    4.8047   -2.2268    3.5856 C   0  0  0  0  0  0  0  0  0  0  0  0
    5.5047   -2.5551    2.2609 C   0  0  2  0  0  0  0  0  0  0  0  0
    5.1433   -1.4761    1.2481 C   0  0  0  0  0  0  0  0  0  0  0  0
    3.7438   -1.6270    0.7281 C   0  0  2  0  0  0  0  0  0  0  0  0
    2.5545   -2.3129    1.3554 C   0  0  2  0  0  0  0  0  0  0  0  0
    2.3993   -2.6996    2.8200 C   0  0  0  0  0  0  0  0  0  0  0  0
    3.3679   -3.0389    0.2828 C   0  0  1  0  0  0  0  0  0  0  0  0
    3.1365   -3.0772   -1.1932 C   0  0  0  0  0  0  0  0  0  0  0  0
    4.4927   -3.5166   -1.7408 C   0  0  1  0  0  0  0  0  0  0  0  0
    5.3001   -2.4023   -2.4192 C   0  0  0  0  0  0  0  0  0  0  0  0
    5.2469   -3.9635   -0.6026 O   0  0  0  0  0  0  0  0  0  0  0  0
    4.3912   -4.1674    0.4944 C   0  0  2  0  0  0  0  0  0  0  0  0
    3.6970   -5.3887    0.3739 O   0  0  0  0  0  0  0  0  0  0  0  0
    4.3715   -6.5554   -0.1078 C   0  0  0  0  0  0  0  0  0  0  0  0
    5.1563   -4.0496    1.8843 C   0  0  2  0  0  0  0  0  0  0  0  0
    6.4660   -4.8743    1.8419 C   0  0  0  0  0  0  0  0  0  0  0  0
    2.9583   -7.5257    3.0197 H   0  0  0  0  0  0  0  0  0  0  0  0
    4.2073   -7.0003    4.1281 H   0  0  0  0  0  0  0  0  0  0  0  0
    4.5310   -7.0608    2.3818 H   0  0  0  0  0  0  0  0  0  0  0  0
    4.9334   -4.7820    3.8948 H   0  0  0  0  0  0  0  0  0  0  0  0
    3.3074   -3.3322    4.6612 H   0  0  0  0  0  0  0  0  0  0  0  0
    4.5034   -1.1801    3.7018 H   0  0  0  0  0  0  0  0  0  0  0  0
    5.4716   -2.4546    4.4199 H   0  0  0  0  0  0  0  0  0  0  0  0
    6.5675   -2.4388    2.4220 H   0  0  0  0  0  0  0  0  0  0  0  0
    5.2836   -0.4687    1.6507 H   0  0  0  0  0  0  0  0  0  0  0  0
    5.8224   -1.5498    0.3993 H   0  0  0  0  0  0  0  0  0  0  0  0
    3.4648   -0.7917    0.0770 H   0  0  0  0  0  0  0  0  0  0  0  0
    1.6084   -1.9188    0.9913 H   0  0  0  0  0  0  0  0  0  0  0  0
    1.6153   -3.4561    2.8784 H   0  0  0  0  0  0  0  0  0  0  0  0
    1.9845   -1.8295    3.3263 H   0  0  0  0  0  0  0  0  0  0  0  0
    2.3567   -3.7975   -1.4215 H   0  0  0  0  0  0  0  0  0  0  0  0
    2.8254   -2.1101   -1.6031 H   0  0  0  0  0  0  0  0  0  0  0  0
    4.3589   -4.3236   -2.4527 H   0  0  0  0  0  0  0  0  0  0  0  0
    4.8190   -2.0726   -3.3406 H   0  0  0  0  0  0  0  0  0  0  0  0
    6.3032   -2.7587   -2.6716 H   0  0  0  0  0  0  0  0  0  0  0  0
    5.4033   -1.5289   -1.7739 H   0  0  0  0  0  0  0  0  0  0  0  0
    3.7414   -7.4208    0.0891 H   0  0  0  0  0  0  0  0  0  0  0  0
    5.2976   -6.7433    0.3660 H   0  0  0  0  0  0  0  0  0  0  0  0
    4.5497   -6.5202   -1.1719 H   0  0  0  0  0  0  0  0  0  0  0  0
    7.1303   -4.4909    1.0659 H   0  0  0  0  0  0  0  0  0  0  0  0
    6.3388   -5.9238    1.7301 H   0  0  0  0  0  0  0  0  0  0  0  0
    7.0201   -4.7148    2.7642 H   0  0  0  0  0  0  0  0  0  0  0  0
  1  2  1  0
  1 21  1  0
  1 22  1  0
  1 23  1  0
  2  3  1  0
  3 19  1  0
  3  4  1  0
  3 24  1  1
  4 10  1  0
  4  5  1  0
  4 25  1  1
  5  6  1  0
  5 26  1  0
  5 27  1  0
  6 19  1  0
  6  7  1  0
  6 28  1  1
  7  8  1  0
  7 29  1  0
  7 30  1  0
  8 11  1  0
  8  9  1  0
  8 31  1  6
  9 10  1  0
  9 11  1  0
  9 32  1  6
 10 33  1  0
 10 34  1  0
 11 16  1  0
 11 12  1  6
 12 13  1  0
 12 35  1  0
 12 36  1  0
 13 14  1  0
 13 15  1  0
 13 37  1  6
 14 38  1  0
 14 39  1  0
 14 40  1  0
 15 16  1  0
 16 17  1  6
 16 19  1  0
 17 18  1  0
 18 41  1  0
 18 42  1  0
 18 43  1  0
 19 20  1  6
 20 44  1  0
 20 45  1  0
 20 46  1  0
M  END
>  <i_m_ct_stereo_status>  (144) 
1

>  <s_m_source_file>  (144) 
/var/tmp/pbs.5076255.sched01/tmpa1vw3d_c/4207j0axjo.sdf

>  <i_m_source_file_index>  (144) 
42

>  <i_lp_mmshare_version>  (144) 
48012

>  <i_f3d_flags>  (144) 
0

>  <s_epik_input>  (144) 
W0NIMl0xW0NAQEhdKFtDSDNdKU9bQ0BAXTIoT1tDSDNdKVtDQEBdKFtDSDNdKShbQ0BIXShbQ0gyXTMpW0NIMl00KVtDQEhdKE9bQ0gzXSlbQ0BASF0zW0NIMl1bQ0BIXTVbQ0BASF00W0NAQF0xMjU=

>  <s_epik_cmdline>  (144) 
J2VwaWtfcHl0aG9uJywgJy1waHQnLCAnMi4wJywgJy1waCcsICc3LjAnLCAnLXRuJywgJzgnLCAnLW1hJywgJzIwMCcsICctaW1hZScsICc8aW5maWxlLm1hZT4nLCAnLW9tYWUnLCAnPG91dGZpbGUubWFlPic=

>  <r_lp_tautomer_probability>  (144) 
1

>  <r_epik_Ionization_Penalty>  (144) 
1.88338e-11

>  <r_epik_Ionization_Penalty_Charging>  (144) 
0

>  <r_epik_Ionization_Penalty_Neutral>  (144) 
1.88338e-11

>  <r_epik_State_Penalty>  (144) 
-0

>  <r_epik_Charging_Adjusted_Penalty>  (144) 
0

>  <i_epik_Tot_Q>  (144) 
0

>  <i_epik_Tot_abs_Q>  (144) 
0

>  <s_lp_Force_Field>  (144) 
OPLS3e

>  <r_lp_Energy>  (144) 
59.547

>  <b_lp_Chiralities_Consistent>  (144) 
1

>  <s_lp_Variant>  (144) 
47:0-1

>  <s_i_glide_gridfile>  (144) 
pfpi4k_grid

>  <i_i_glide_lignum>  (144) 
42

>  <i_i_glide_rotatable_bonds>  (144) 
2

>  <r_i_docking_score>  (144) 
-2.59952

>  <r_i_glide_ligand_efficiency>  (144) 
-0.129976

>  <r_i_glide_ligand_efficiency_sa>  (144) 
-0.35281

>  <r_i_glide_ligand_efficiency_ln>  (144) 
-0.650575

>  <r_i_glide_gscore>  (144) 
-2.59952

>  <r_i_glide_lipo>  (144) 
-0.397423

>  <r_i_glide_hbond>  (144) 
0

>  <r_i_glide_metal>  (144) 
-0

>  <r_i_glide_rewards>  (144) 
-1.55433

>  <r_i_glide_evdw>  (144) 
-11.5662

>  <r_i_glide_ecoul>  (144) 
-0.463045

>  <r_i_glide_erotb>  (144) 
0

>  <r_i_glide_esite>  (144) 
0

>  <r_i_glide_emodel>  (144) 
-12.9242

>  <r_i_glide_energy>  (144) 
-12.0293

>  <r_i_glide_einternal>  (144) 
1.59549

>  <r_i_glide_intrahb_reward>  (144) 
-0

>  <i_i_glide_confnum>  (144) 
2

>  <i_i_glide_posenum>  (144) 
28

>  <r_i_glide_eff_state_penalty>  (144) 
0

>  <ligand_id>  (144) 
47

>  <original_smiles>  (144) 
COC1C2CC3CC4C(C2)C42CC(C)OC2(OC)C31C

>  <smiles>  (144) 
[H]C([H])([H])OC1([H])C2([H])C([H])([H])C3([H])C([H])([H])C4([H])C([H])(C2([H])[H])C42C([H])([H])C([H])(C([H])([H])[H])OC2(OC([H])([H])[H])C13C([H])([H])[H]

$$$$
50:0:0
     RDKit          3D

 20 21  0  0  1  0  0  0  0  0999 V2000
    2.0282   -2.9361   -3.4909 C   0  0  0  0  0  0  0  0  0  0  0  0
    2.9408   -2.2728   -2.5921 N   0  0  0  0  0  0  0  0  0  0  0  0
    3.6053   -1.0602   -2.8015 C   0  0  0  0  0  0  0  0  0  0  0  0
    3.4908   -0.2499   -4.0672 C   0  0  0  0  0  0  0  0  0  0  0  0
    4.2123    0.8612   -3.9998 F   0  0  0  0  0  0  0  0  0  0  0  0
    3.9286   -0.9543   -5.1054 F   0  0  0  0  0  0  0  0  0  0  0  0
    2.2603    0.1461   -4.3550 F   0  0  0  0  0  0  0  0  0  0  0  0
    4.3856   -0.7973   -1.7006 C   0  0  0  0  0  0  0  0  0  0  0  0
    4.1628   -1.8358   -0.7429 C   0  0  0  0  0  0  0  0  0  0  0  0
    4.6614   -2.0244    0.4881 N   0  0  0  0  0  0  0  0  0  0  0  0
    4.2121   -3.1339    1.0956 C   0  0  0  0  0  0  0  0  0  0  0  0
    3.3571   -4.0504    0.6434 N   0  0  0  0  0  0  0  0  0  0  0  0
    2.8666   -3.8702   -0.5973 C   0  0  0  0  0  0  0  0  0  0  0  0
    3.2623   -2.7483   -1.3353 C   0  0  0  0  0  0  0  0  0  0  0  0
    1.9075   -2.3547   -4.3939 H   0  0  0  0  0  0  0  0  0  0  0  0
    1.0542   -3.0414   -3.0147 H   0  0  0  0  0  0  0  0  0  0  0  0
    2.4026   -3.9273   -3.7442 H   0  0  0  0  0  0  0  0  0  0  0  0
    5.0176    0.0598   -1.5459 H   0  0  0  0  0  0  0  0  0  0  0  0
    4.5994   -3.3213    2.0795 H   0  0  0  0  0  0  0  0  0  0  0  0
    2.1795   -4.6044   -0.9886 H   0  0  0  0  0  0  0  0  0  0  0  0
  1  2  1  0
  1 15  1  0
  1 16  1  0
  1 17  1  0
  2 14  1  0
  2  3  1  0
  3  4  1  0
  3  8  2  0
  4  5  1  0
  4  6  1  0
  4  7  1  0
  8  9  1  0
  8 18  1  0
  9 14  2  0
  9 10  1  0
 10 11  2  0
 11 12  1  0
 11 19  1  0
 12 13  2  0
 13 14  1  0
 13 20  1  0
M  END
>  <i_m_ct_stereo_status>  (145) 
1

>  <s_m_source_file>  (145) 
/var/tmp/pbs.5076255.sched01/tmp2djcgp0g/84b3bpyveh.sdf

>  <i_m_source_file_index>  (145) 
3

>  <i_lp_mmshare_version>  (145) 
48012

>  <i_f3d_flags>  (145) 
0

>  <s_epik_input>  (145) 
RkMoRikoRiljKFtjSF0xKW4oW0NIM10pYyhjMTIpW2NIXW5bY0hdbjI=

>  <s_epik_cmdline>  (145) 
J2VwaWtfcHl0aG9uJywgJy1waHQnLCAnMi4wJywgJy1waCcsICc3LjAnLCAnLXRuJywgJzgnLCAnLW1hJywgJzIwMCcsICctaW1hZScsICc8aW5maWxlLm1hZT4nLCAnLW9tYWUnLCAnPG91dGZpbGUubWFlPic=

>  <r_lp_tautomer_probability>  (145) 
1

>  <r_epik_Ionization_Penalty>  (145) 
1.2844e-09

>  <r_epik_Ionization_Penalty_Charging>  (145) 
0

>  <r_epik_Ionization_Penalty_Neutral>  (145) 
1.2844e-09

>  <r_epik_State_Penalty>  (145) 
-0

>  <r_epik_Charging_Adjusted_Penalty>  (145) 
0

>  <i_epik_Tot_Q>  (145) 
0

>  <i_epik_Tot_abs_Q>  (145) 
0

>  <s_lp_Force_Field>  (145) 
OPLS3e

>  <r_lp_Energy>  (145) 
15.4573

>  <b_lp_Chiralities_Consistent>  (145) 
1

>  <s_lp_Variant>  (145) 
50:0-1

>  <s_i_glide_gridfile>  (145) 
pfpi4k_grid

>  <i_i_glide_lignum>  (145) 
3

>  <i_i_glide_rotatable_bonds>  (145) 
1

>  <r_i_docking_score>  (145) 
-3.82599

>  <r_i_glide_ligand_efficiency>  (145) 
-0.273285

>  <r_i_glide_ligand_efficiency_sa>  (145) 
-0.658655

>  <r_i_glide_ligand_efficiency_ln>  (145) 
-1.05137

>  <r_i_glide_gscore>  (145) 
-3.82599

>  <r_i_glide_lipo>  (145) 
-0.475277

>  <r_i_glide_hbond>  (145) 
0

>  <r_i_glide_metal>  (145) 
-0

>  <r_i_glide_rewards>  (145) 
-2.05151

>  <r_i_glide_evdw>  (145) 
-13.9499

>  <r_i_glide_ecoul>  (145) 
-3.33918

>  <r_i_glide_erotb>  (145) 
0

>  <r_i_glide_esite>  (145) 
-0.100822

>  <r_i_glide_emodel>  (145) 
-22.3649

>  <r_i_glide_energy>  (145) 
-17.2891

>  <r_i_glide_einternal>  (145) 
0.00464184

>  <r_i_glide_intrahb_reward>  (145) 
-0

>  <i_i_glide_confnum>  (145) 
1

>  <i_i_glide_posenum>  (145) 
3

>  <r_i_glide_eff_state_penalty>  (145) 
0

>  <ligand_id>  (145) 
50

>  <original_smiles>  (145) 
Cn1c(C(F)(F)F)cc2ncncc21

>  <smiles>  (145) 
[H]c1nc([H])c2c(n1)c([H])c(C(F)(F)F)n2C([H])([H])[H]

$$$$
50:0:1
     RDKit          3D

 20 21  0  0  1  0  0  0  0  0999 V2000
    0.8444    1.5747    1.6745 C   0  0  0  0  0  0  0  0  0  0  0  0
    0.3032    1.2088    2.9691 N   0  0  0  0  0  0  0  0  0  0  0  0
    0.6212    0.0814    3.7290 C   0  0  0  0  0  0  0  0  0  0  0  0
    1.6190   -0.9503    3.2885 C   0  0  0  0  0  0  0  0  0  0  0  0
    1.6669   -1.9705    4.1454 F   0  0  0  0  0  0  0  0  0  0  0  0
    1.3136   -1.4602    2.0975 F   0  0  0  0  0  0  0  0  0  0  0  0
    2.8470   -0.4378    3.2120 F   0  0  0  0  0  0  0  0  0  0  0  0
   -0.1028    0.1081    4.8985 C   0  0  0  0  0  0  0  0  0  0  0  0
   -0.9066    1.2926    4.8792 C   0  0  0  0  0  0  0  0  0  0  0  0
   -1.7772    1.7773    5.7775 N   0  0  0  0  0  0  0  0  0  0  0  0
   -2.3434    2.9391    5.4178 C   0  0  0  0  0  0  0  0  0  0  0  0
   -2.1712    3.6524    4.3015 N   0  0  0  0  0  0  0  0  0  0  0  0
   -1.3059    3.1637    3.3892 C   0  0  0  0  0  0  0  0  0  0  0  0
   -0.6354    1.9602    3.6576 C   0  0  0  0  0  0  0  0  0  0  0  0
    1.5690    0.8463    1.3185 H   0  0  0  0  0  0  0  0  0  0  0  0
    1.3401    2.5429    1.7430 H   0  0  0  0  0  0  0  0  0  0  0  0
    0.0366    1.6455    0.9474 H   0  0  0  0  0  0  0  0  0  0  0  0
   -0.0701   -0.6178    5.6966 H   0  0  0  0  0  0  0  0  0  0  0  0
   -3.0652    3.3411    6.1131 H   0  0  0  0  0  0  0  0  0  0  0  0
   -1.1504    3.7238    2.4791 H   0  0  0  0  0  0  0  0  0  0  0  0
  1  2  1  0
  1 15  1  0
  1 16  1  0
  1 17  1  0
  2 14  1  0
  2  3  1  0
  3  4  1  0
  3  8  2  0
  4  5  1  0
  4  6  1  0
  4  7  1  0
  8  9  1  0
  8 18  1  0
  9 14  2  0
  9 10  1  0
 10 11  2  0
 11 12  1  0
 11 19  1  0
 12 13  2  0
 13 14  1  0
 13 20  1  0
M  END
>  <i_m_ct_stereo_status>  (146) 
1

>  <s_m_source_file>  (146) 
/var/tmp/pbs.5076255.sched01/tmp2djcgp0g/84b3bpyveh.sdf

>  <i_m_source_file_index>  (146) 
3

>  <i_lp_mmshare_version>  (146) 
48012

>  <i_f3d_flags>  (146) 
0

>  <s_epik_input>  (146) 
RkMoRikoRiljKFtjSF0xKW4oW0NIM10pYyhjMTIpW2NIXW5bY0hdbjI=

>  <s_epik_cmdline>  (146) 
J2VwaWtfcHl0aG9uJywgJy1waHQnLCAnMi4wJywgJy1waCcsICc3LjAnLCAnLXRuJywgJzgnLCAnLW1hJywgJzIwMCcsICctaW1hZScsICc8aW5maWxlLm1hZT4nLCAnLW9tYWUnLCAnPG91dGZpbGUubWFlPic=

>  <r_lp_tautomer_probability>  (146) 
1

>  <r_epik_Ionization_Penalty>  (146) 
1.2844e-09

>  <r_epik_Ionization_Penalty_Charging>  (146) 
0

>  <r_epik_Ionization_Penalty_Neutral>  (146) 
1.2844e-09

>  <r_epik_State_Penalty>  (146) 
-0

>  <r_epik_Charging_Adjusted_Penalty>  (146) 
0

>  <i_epik_Tot_Q>  (146) 
0

>  <i_epik_Tot_abs_Q>  (146) 
0

>  <s_lp_Force_Field>  (146) 
OPLS3e

>  <r_lp_Energy>  (146) 
15.4573

>  <b_lp_Chiralities_Consistent>  (146) 
1

>  <s_lp_Variant>  (146) 
50:0-1

>  <s_i_glide_gridfile>  (146) 
pfpi4k_grid

>  <i_i_glide_lignum>  (146) 
3

>  <i_i_glide_rotatable_bonds>  (146) 
1

>  <r_i_docking_score>  (146) 
-3.329

>  <r_i_glide_ligand_efficiency>  (146) 
-0.237786

>  <r_i_glide_ligand_efficiency_sa>  (146) 
-0.573097

>  <r_i_glide_ligand_efficiency_ln>  (146) 
-0.914797

>  <r_i_glide_gscore>  (146) 
-3.329

>  <r_i_glide_lipo>  (146) 
0

>  <r_i_glide_hbond>  (146) 
0

>  <r_i_glide_metal>  (146) 
-0

>  <r_i_glide_rewards>  (146) 
-2.04334

>  <r_i_glide_evdw>  (146) 
-14.8885

>  <r_i_glide_ecoul>  (146) 
-2.91308

>  <r_i_glide_erotb>  (146) 
0

>  <r_i_glide_esite>  (146) 
-0.10427

>  <r_i_glide_emodel>  (146) 
-22.1828

>  <r_i_glide_energy>  (146) 
-17.8015

>  <r_i_glide_einternal>  (146) 
0.0256587

>  <r_i_glide_intrahb_reward>  (146) 
-0

>  <i_i_glide_confnum>  (146) 
1

>  <i_i_glide_posenum>  (146) 
37

>  <r_i_glide_eff_state_penalty>  (146) 
0

>  <ligand_id>  (146) 
50

>  <original_smiles>  (146) 
Cn1c(C(F)(F)F)cc2ncncc21

>  <smiles>  (146) 
[H]c1nc([H])c2c(n1)c([H])c(C(F)(F)F)n2C([H])([H])[H]

$$$$
50:0:2
     RDKit          3D

 20 21  0  0  1  0  0  0  0  0999 V2000
    0.2169    1.2409    2.2261 C   0  0  0  0  0  0  0  0  0  0  0  0
   -0.4165    0.8240    3.4632 N   0  0  0  0  0  0  0  0  0  0  0  0
   -1.3310    1.5474    4.2339 C   0  0  0  0  0  0  0  0  0  0  0  0
   -1.8093    2.9217    3.8705 C   0  0  0  0  0  0  0  0  0  0  0  0
   -2.5850    3.4196    4.8317 F   0  0  0  0  0  0  0  0  0  0  0  0
   -0.7989    3.7764    3.7173 F   0  0  0  0  0  0  0  0  0  0  0  0
   -2.5279    2.9151    2.7490 F   0  0  0  0  0  0  0  0  0  0  0  0
   -1.6920    0.7964    5.3291 C   0  0  0  0  0  0  0  0  0  0  0  0
   -0.9851   -0.4415    5.2507 C   0  0  0  0  0  0  0  0  0  0  0  0
   -0.9939   -1.5079    6.0654 N   0  0  0  0  0  0  0  0  0  0  0  0
   -0.1874   -2.5042    5.6677 C   0  0  0  0  0  0  0  0  0  0  0  0
    0.5970   -2.5692    4.5913 N   0  0  0  0  0  0  0  0  0  0  0  0
    0.6153   -1.5021    3.7720 C   0  0  0  0  0  0  0  0  0  0  0  0
   -0.1882   -0.3950    4.0786 C   0  0  0  0  0  0  0  0  0  0  0  0
   -0.1165    2.2321    1.9289 H   0  0  0  0  0  0  0  0  0  0  0  0
   -0.0314    0.5431    1.4252 H   0  0  0  0  0  0  0  0  0  0  0  0
    1.2997    1.2611    2.3591 H   0  0  0  0  0  0  0  0  0  0  0  0
   -2.3832    1.0847    6.1064 H   0  0  0  0  0  0  0  0  0  0  0  0
   -0.1633   -3.3784    6.3009 H   0  0  0  0  0  0  0  0  0  0  0  0
    1.2422   -1.5411    2.8924 H   0  0  0  0  0  0  0  0  0  0  0  0
  1  2  1  0
  1 15  1  0
  1 16  1  0
  1 17  1  0
  2 14  1  0
  2  3  1  0
  3  4  1  0
  3  8  2  0
  4  5  1  0
  4  6  1  0
  4  7  1  0
  8  9  1  0
  8 18  1  0
  9 14  2  0
  9 10  1  0
 10 11  2  0
 11 12  1  0
 11 19  1  0
 12 13  2  0
 13 14  1  0
 13 20  1  0
M  END
>  <i_m_ct_stereo_status>  (147) 
1

>  <s_m_source_file>  (147) 
/var/tmp/pbs.5076255.sched01/tmp2djcgp0g/84b3bpyveh.sdf

>  <i_m_source_file_index>  (147) 
3

>  <i_lp_mmshare_version>  (147) 
48012

>  <i_f3d_flags>  (147) 
0

>  <s_epik_input>  (147) 
RkMoRikoRiljKFtjSF0xKW4oW0NIM10pYyhjMTIpW2NIXW5bY0hdbjI=

>  <s_epik_cmdline>  (147) 
J2VwaWtfcHl0aG9uJywgJy1waHQnLCAnMi4wJywgJy1waCcsICc3LjAnLCAnLXRuJywgJzgnLCAnLW1hJywgJzIwMCcsICctaW1hZScsICc8aW5maWxlLm1hZT4nLCAnLW9tYWUnLCAnPG91dGZpbGUubWFlPic=

>  <r_lp_tautomer_probability>  (147) 
1

>  <r_epik_Ionization_Penalty>  (147) 
1.2844e-09

>  <r_epik_Ionization_Penalty_Charging>  (147) 
0

>  <r_epik_Ionization_Penalty_Neutral>  (147) 
1.2844e-09

>  <r_epik_State_Penalty>  (147) 
-0

>  <r_epik_Charging_Adjusted_Penalty>  (147) 
0

>  <i_epik_Tot_Q>  (147) 
0

>  <i_epik_Tot_abs_Q>  (147) 
0

>  <s_lp_Force_Field>  (147) 
OPLS3e

>  <r_lp_Energy>  (147) 
15.4573

>  <b_lp_Chiralities_Consistent>  (147) 
1

>  <s_lp_Variant>  (147) 
50:0-1

>  <s_i_glide_gridfile>  (147) 
pfpi4k_grid

>  <i_i_glide_lignum>  (147) 
3

>  <i_i_glide_rotatable_bonds>  (147) 
1

>  <r_i_docking_score>  (147) 
-3.27804

>  <r_i_glide_ligand_efficiency>  (147) 
-0.234146

>  <r_i_glide_ligand_efficiency_sa>  (147) 
-0.564325

>  <r_i_glide_ligand_efficiency_ln>  (147) 
-0.900795

>  <r_i_glide_gscore>  (147) 
-3.27804

>  <r_i_glide_lipo>  (147) 
0

>  <r_i_glide_hbond>  (147) 
0

>  <r_i_glide_metal>  (147) 
-0

>  <r_i_glide_rewards>  (147) 
-2.03762

>  <r_i_glide_evdw>  (147) 
-15.0887

>  <r_i_glide_ecoul>  (147) 
-1.96853

>  <r_i_glide_erotb>  (147) 
0

>  <r_i_glide_esite>  (147) 
-0.190708

>  <r_i_glide_emodel>  (147) 
-21.364

>  <r_i_glide_energy>  (147) 
-17.0572

>  <r_i_glide_einternal>  (147) 
0.0342801

>  <r_i_glide_intrahb_reward>  (147) 
-0

>  <i_i_glide_confnum>  (147) 
1

>  <i_i_glide_posenum>  (147) 
13

>  <r_i_glide_eff_state_penalty>  (147) 
0

>  <ligand_id>  (147) 
50

>  <original_smiles>  (147) 
Cn1c(C(F)(F)F)cc2ncncc21

>  <smiles>  (147) 
[H]c1nc([H])c2c(n1)c([H])c(C(F)(F)F)n2C([H])([H])[H]

$$$$
51:0:0
     RDKit          3D

 36 38  0  0  1  0  0  0  0  0999 V2000
    4.6647   -5.2210    0.7767 C   0  0  0  0  0  0  0  0  0  0  0  0
    4.2702   -3.7275    0.7195 C   0  0  2  0  0  0  0  0  0  0  0  0
    3.4773   -3.5109   -0.6091 C   0  0  0  0  0  0  0  0  0  0  0  0
    2.2493   -3.6343   -0.6154 O   0  0  0  0  0  0  0  0  0  0  0  0
    4.1894   -3.2347   -1.7315 N   0  0  0  0  0  0  0  0  0  0  0  0
    3.5858   -3.1865   -3.0686 C   0  0  0  0  0  0  0  0  0  0  0  0
    3.0064   -1.8111   -3.4083 C   0  0  0  0  0  0  0  0  0  0  0  0
    3.4121   -1.4170   -4.7075 O   0  0  0  0  0  0  0  0  0  0  0  0
    5.6522   -3.1172   -1.7062 C   0  0  0  0  0  0  0  0  0  0  0  0
    6.2030   -2.5949   -0.3798 C   0  0  0  0  0  0  0  0  0  0  0  0
    7.2118   -1.8886   -0.3991 O   0  0  0  0  0  0  0  0  0  0  0  0
    5.5162   -2.9029    0.7439 N   0  0  0  0  0  0  0  0  0  0  0  0
    5.9870   -2.4333    2.0571 C   0  0  0  0  0  0  0  0  0  0  0  0
    4.9029   -1.6093    2.7426 C   0  0  0  0  0  0  0  0  0  0  0  0
    3.6728   -2.4295    2.7763 C   0  0  0  0  0  0  0  0  0  0  0  0
    2.6828   -2.3898    3.6704 N   0  0  0  0  0  0  0  0  0  0  0  0
    1.7760   -3.3765    3.3977 C   0  0  0  0  0  0  0  0  0  0  0  0
    2.2411   -4.0355    2.2894 C   0  0  0  0  0  0  0  0  0  0  0  0
    3.4015   -3.4091    1.8980 N   0  0  0  0  0  0  0  0  0  0  0  0
    5.1880   -5.4798    1.7015 H   0  0  0  0  0  0  0  0  0  0  0  0
    5.3225   -5.4840   -0.0531 H   0  0  0  0  0  0  0  0  0  0  0  0
    3.7906   -5.8720    0.6883 H   0  0  0  0  0  0  0  0  0  0  0  0
    4.3246   -3.5177   -3.8034 H   0  0  0  0  0  0  0  0  0  0  0  0
    2.7712   -3.9018   -3.1484 H   0  0  0  0  0  0  0  0  0  0  0  0
    1.9253   -1.8663   -3.3770 H   0  0  0  0  0  0  0  0  0  0  0  0
    3.3011   -1.0490   -2.6925 H   0  0  0  0  0  0  0  0  0  0  0  0
    2.6956   -1.5986   -5.3127 H   0  0  0  0  0  0  0  0  0  0  0  0
    6.0701   -4.1072   -1.8554 H   0  0  0  0  0  0  0  0  0  0  0  0
    6.0155   -2.4953   -2.5250 H   0  0  0  0  0  0  0  0  0  0  0  0
    6.2135   -3.3115    2.6633 H   0  0  0  0  0  0  0  0  0  0  0  0
    6.8961   -1.8358    1.9962 H   0  0  0  0  0  0  0  0  0  0  0  0
    5.1672   -1.3543    3.7692 H   0  0  0  0  0  0  0  0  0  0  0  0
    4.6708   -0.7010    2.1864 H   0  0  0  0  0  0  0  0  0  0  0  0
    0.8911   -3.5445    3.9882 H   0  0  0  0  0  0  0  0  0  0  0  0
    1.8329   -4.8721    1.7434 H   0  0  0  0  0  0  0  0  0  0  0  0
    2.6356   -1.7473    4.4516 H   0  0  0  0  0  0  0  0  0  0  0  0
  2  1  1  1
  1 20  1  0
  1 21  1  0
  1 22  1  0
  2 12  1  0
  2 19  1  0
  2  3  1  0
  3  4  2  0
  3  5  1  0
  5  6  1  0
  5  9  1  0
  6  7  1  0
  6 23  1  0
  6 24  1  0
  7  8  1  0
  7 25  1  0
  7 26  1  0
  8 27  1  0
  9 10  1  0
  9 28  1  0
  9 29  1  0
 10 11  2  0
 10 12  1  0
 12 13  1  0
 13 14  1  0
 13 30  1  0
 13 31  1  0
 14 15  1  0
 14 32  1  0
 14 33  1  0
 15 19  1  0
 15 16  2  0
 16 17  1  0
 16 36  1  0
 17 18  2  0
 17 34  1  0
 18 19  1  0
 18 35  1  0
M  CHG  1  16   1
M  END
>  <i_m_ct_stereo_status>  (148) 
1

>  <s_m_source_file>  (148) 
/var/tmp/pbs.5076255.sched01/tmp2djcgp0g/84b3bpyveh.sdf

>  <i_m_source_file_index>  (148) 
4

>  <i_lp_mmshare_version>  (148) 
48012

>  <i_f3d_flags>  (148) 
0

>  <s_epik_input>  (148) 
W09IXVtDSDJdW0NIMl1OKEMxPU8pW0NIMl1DKD1PKU4oW0NAXTEyW0NIM10pW0NIMl1bQ0gyXWMzbjJbY0hdW2NIXW4z

>  <s_epik_cmdline>  (148) 
J2VwaWtfcHl0aG9uJywgJy1waHQnLCAnMi4wJywgJy1waCcsICc3LjAnLCAnLXRuJywgJzgnLCAnLW1hJywgJzIwMCcsICctaW1hZScsICc8aW5maWxlLm1hZT4nLCAnLW9tYWUnLCAnPG91dGZpbGUubWFlPic=

>  <r_lp_tautomer_probability>  (148) 
1

>  <r_epik_Ionization_Penalty>  (148) 
0.323006

>  <r_epik_Ionization_Penalty_Charging>  (148) 
0

>  <r_epik_Ionization_Penalty_Neutral>  (148) 
0.323006

>  <r_epik_State_Penalty>  (148) 
0.317666

>  <r_epik_Charging_Adjusted_Penalty>  (148) 
0.317666

>  <i_epik_Tot_Q>  (148) 
1

>  <i_epik_Tot_abs_Q>  (148) 
1

>  <s_lp_Force_Field>  (148) 
OPLS3e

>  <r_lp_Energy>  (148) 
28.8369

>  <b_lp_Chiralities_Consistent>  (148) 
1

>  <s_lp_Variant>  (148) 
51:0-1

>  <s_i_glide_gridfile>  (148) 
pfpi4k_grid

>  <i_i_glide_lignum>  (148) 
4

>  <i_i_glide_rotatable_bonds>  (148) 
3

>  <r_i_docking_score>  (148) 
-4.79624

>  <r_i_glide_ligand_efficiency>  (148) 
-0.252434

>  <r_i_glide_ligand_efficiency_sa>  (148) 
-0.673594

>  <r_i_glide_ligand_efficiency_ln>  (148) 
-1.21595

>  <r_i_glide_gscore>  (148) 
-4.79624

>  <r_i_glide_lipo>  (148) 
-0.461635

>  <r_i_glide_hbond>  (148) 
-0.758558

>  <r_i_glide_metal>  (148) 
-0

>  <r_i_glide_rewards>  (148) 
-1.7552

>  <r_i_glide_evdw>  (148) 
-17.4456

>  <r_i_glide_ecoul>  (148) 
-9.53163

>  <r_i_glide_erotb>  (148) 
0.505641

>  <r_i_glide_esite>  (148) 
-0.0244651

>  <r_i_glide_emodel>  (148) 
-35.7617

>  <r_i_glide_energy>  (148) 
-26.9772

>  <r_i_glide_einternal>  (148) 
3.51947

>  <r_i_glide_intrahb_reward>  (148) 
-0

>  <i_i_glide_confnum>  (148) 
2

>  <i_i_glide_posenum>  (148) 
26

>  <r_i_glide_eff_state_penalty>  (148) 
0

>  <ligand_id>  (148) 
51

>  <original_smiles>  (148) 
CC12C(=O)N(CCO)CC(=O)N1CCc1nccn12

>  <smiles>  (148) 
[H]OC([H])([H])C([H])([H])N1C(=O)C2(C([H])([H])[H])N(C(=O)C1([H])[H])C([H])([H])C([H])([H])c1n2c([H])c([H])[n+]1[H]

$$$$
51:0:1
     RDKit          3D

 36 38  0  0  1  0  0  0  0  0999 V2000
    5.3818   -4.4735    0.3777 C   0  0  0  0  0  0  0  0  0  0  0  0
    4.1776   -3.6257    0.8506 C   0  0  2  0  0  0  0  0  0  0  0  0
    3.3993   -3.1929   -0.4302 C   0  0  0  0  0  0  0  0  0  0  0  0
    2.4380   -3.8534   -0.8218 O   0  0  0  0  0  0  0  0  0  0  0  0
    3.8308   -2.0786   -1.0719 N   0  0  0  0  0  0  0  0  0  0  0  0
    3.2457   -1.6334   -2.3439 C   0  0  0  0  0  0  0  0  0  0  0  0
    3.9344   -2.2772   -3.5617 C   0  0  0  0  0  0  0  0  0  0  0  0
    3.8176   -1.4475   -4.7010 O   0  0  0  0  0  0  0  0  0  0  0  0
    4.9145   -1.2457   -0.5275 C   0  0  0  0  0  0  0  0  0  0  0  0
    5.0362   -1.2868    0.9988 C   0  0  0  0  0  0  0  0  0  0  0  0
    5.4230   -0.2831    1.5962 O   0  0  0  0  0  0  0  0  0  0  0  0
    4.6831   -2.4396    1.6146 N   0  0  0  0  0  0  0  0  0  0  0  0
    4.8031   -2.5774    3.0790 C   0  0  0  0  0  0  0  0  0  0  0  0
    3.4394   -2.9298    3.6732 C   0  0  0  0  0  0  0  0  0  0  0  0
    2.9324   -4.1335    2.9655 C   0  0  0  0  0  0  0  0  0  0  0  0
    2.1153   -5.0810    3.4318 N   0  0  0  0  0  0  0  0  0  0  0  0
    1.9657   -6.0685    2.4924 C   0  0  0  0  0  0  0  0  0  0  0  0
    2.7126   -5.6849    1.4079 C   0  0  0  0  0  0  0  0  0  0  0  0
    3.2890   -4.4724    1.7149 N   0  0  0  0  0  0  0  0  0  0  0  0
    5.9589   -4.8741    1.2169 H   0  0  0  0  0  0  0  0  0  0  0  0
    6.0615   -3.8781   -0.2364 H   0  0  0  0  0  0  0  0  0  0  0  0
    5.0583   -5.3131   -0.2455 H   0  0  0  0  0  0  0  0  0  0  0  0
    2.1795   -1.8478   -2.3779 H   0  0  0  0  0  0  0  0  0  0  0  0
    3.3110   -0.5481   -2.4027 H   0  0  0  0  0  0  0  0  0  0  0  0
    4.9981   -2.4265   -3.3771 H   0  0  0  0  0  0  0  0  0  0  0  0
    3.5050   -3.2584   -3.7690 H   0  0  0  0  0  0  0  0  0  0  0  0
    2.8934   -1.3375   -4.9024 H   0  0  0  0  0  0  0  0  0  0  0  0
    5.8613   -1.5981   -0.9356 H   0  0  0  0  0  0  0  0  0  0  0  0
    4.8093   -0.2099   -0.8419 H   0  0  0  0  0  0  0  0  0  0  0  0
    5.5094   -3.3834    3.2906 H   0  0  0  0  0  0  0  0  0  0  0  0
    5.2047   -1.6916    3.5761 H   0  0  0  0  0  0  0  0  0  0  0  0
    3.5041   -3.1579    4.7376 H   0  0  0  0  0  0  0  0  0  0  0  0
    2.7141   -2.1293    3.5208 H   0  0  0  0  0  0  0  0  0  0  0  0
    1.3693   -6.9520    2.6555 H   0  0  0  0  0  0  0  0  0  0  0  0
    2.8721   -6.1709    0.4540 H   0  0  0  0  0  0  0  0  0  0  0  0
    1.7109   -5.0925    4.3609 H   0  0  0  0  0  0  0  0  0  0  0  0
  2  1  1  6
  1 20  1  0
  1 21  1  0
  1 22  1  0
  2 12  1  0
  2 19  1  0
  2  3  1  0
  3  4  2  0
  3  5  1  0
  5  6  1  0
  5  9  1  0
  6  7  1  0
  6 23  1  0
  6 24  1  0
  7  8  1  0
  7 25  1  0
  7 26  1  0
  8 27  1  0
  9 10  1  0
  9 28  1  0
  9 29  1  0
 10 11  2  0
 10 12  1  0
 12 13  1  0
 13 14  1  0
 13 30  1  0
 13 31  1  0
 14 15  1  0
 14 32  1  0
 14 33  1  0
 15 19  1  0
 15 16  2  0
 16 17  1  0
 16 36  1  0
 17 18  2  0
 17 34  1  0
 18 19  1  0
 18 35  1  0
M  CHG  1  16   1
M  END
>  <i_m_ct_stereo_status>  (149) 
1

>  <s_m_source_file>  (149) 
/var/tmp/pbs.5076255.sched01/tmp2djcgp0g/84b3bpyveh.sdf

>  <i_m_source_file_index>  (149) 
4

>  <i_lp_mmshare_version>  (149) 
48012

>  <i_f3d_flags>  (149) 
0

>  <s_epik_input>  (149) 
W09IXVtDSDJdW0NIMl1OKEMxPU8pW0NIMl1DKD1PKU4oW0NAXTEyW0NIM10pW0NIMl1bQ0gyXWMzbjJbY0hdW2NIXW4z

>  <s_epik_cmdline>  (149) 
J2VwaWtfcHl0aG9uJywgJy1waHQnLCAnMi4wJywgJy1waCcsICc3LjAnLCAnLXRuJywgJzgnLCAnLW1hJywgJzIwMCcsICctaW1hZScsICc8aW5maWxlLm1hZT4nLCAnLW9tYWUnLCAnPG91dGZpbGUubWFlPic=

>  <r_lp_tautomer_probability>  (149) 
1

>  <r_epik_Ionization_Penalty>  (149) 
0.323006

>  <r_epik_Ionization_Penalty_Charging>  (149) 
0

>  <r_epik_Ionization_Penalty_Neutral>  (149) 
0.323006

>  <r_epik_State_Penalty>  (149) 
0.317666

>  <r_epik_Charging_Adjusted_Penalty>  (149) 
0.317666

>  <i_epik_Tot_Q>  (149) 
1

>  <i_epik_Tot_abs_Q>  (149) 
1

>  <s_lp_Force_Field>  (149) 
OPLS3e

>  <r_lp_Energy>  (149) 
28.8369

>  <b_lp_Chiralities_Consistent>  (149) 
1

>  <s_lp_Variant>  (149) 
51:0-1

>  <s_i_glide_gridfile>  (149) 
pfpi4k_grid

>  <i_i_glide_lignum>  (149) 
4

>  <i_i_glide_rotatable_bonds>  (149) 
3

>  <r_i_docking_score>  (149) 
-4.29059

>  <r_i_glide_ligand_efficiency>  (149) 
-0.22582

>  <r_i_glide_ligand_efficiency_sa>  (149) 
-0.602579

>  <r_i_glide_ligand_efficiency_ln>  (149) 
-1.08776

>  <r_i_glide_gscore>  (149) 
-4.29059

>  <r_i_glide_lipo>  (149) 
-0.323847

>  <r_i_glide_hbond>  (149) 
-0.586273

>  <r_i_glide_metal>  (149) 
-0

>  <r_i_glide_rewards>  (149) 
-1.78961

>  <r_i_glide_evdw>  (149) 
-20.7357

>  <r_i_glide_ecoul>  (149) 
-6.73808

>  <r_i_glide_erotb>  (149) 
0.505641

>  <r_i_glide_esite>  (149) 
-0.0490072

>  <r_i_glide_emodel>  (149) 
-36.6981

>  <r_i_glide_energy>  (149) 
-27.4738

>  <r_i_glide_einternal>  (149) 
1.31196

>  <r_i_glide_intrahb_reward>  (149) 
-0

>  <i_i_glide_confnum>  (149) 
3

>  <i_i_glide_posenum>  (149) 
19

>  <r_i_glide_eff_state_penalty>  (149) 
0

>  <ligand_id>  (149) 
51

>  <original_smiles>  (149) 
CC12C(=O)N(CCO)CC(=O)N1CCc1nccn12

>  <smiles>  (149) 
[H]OC([H])([H])C([H])([H])N1C(=O)C2(C([H])([H])[H])N(C(=O)C1([H])[H])C([H])([H])C([H])([H])c1n2c([H])c([H])[n+]1[H]

$$$$
51:0:2
     RDKit          3D

 36 38  0  0  1  0  0  0  0  0999 V2000
    3.5934   -5.9546    3.6528 C   0  0  0  0  0  0  0  0  0  0  0  0
    3.2827   -6.0686    2.1437 C   0  0  2  0  0  0  0  0  0  0  0  0
    1.8502   -6.6795    2.0285 C   0  0  0  0  0  0  0  0  0  0  0  0
    0.8661   -5.9431    1.9154 O   0  0  0  0  0  0  0  0  0  0  0  0
    1.7462   -8.0314    2.0723 N   0  0  0  0  0  0  0  0  0  0  0  0
    0.4375   -8.6980    2.0820 C   0  0  0  0  0  0  0  0  0  0  0  0
   -0.2652   -8.6448    3.4483 C   0  0  0  0  0  0  0  0  0  0  0  0
   -1.6052   -9.0592    3.2958 O   0  0  0  0  0  0  0  0  0  0  0  0
    2.9321   -8.9042    2.1083 C   0  0  0  0  0  0  0  0  0  0  0  0
    4.1823   -8.2932    1.4601 C   0  0  0  0  0  0  0  0  0  0  0  0
    4.9992   -9.0301    0.9159 O   0  0  0  0  0  0  0  0  0  0  0  0
    4.3057   -6.9446    1.4978 N   0  0  0  0  0  0  0  0  0  0  0  0
    5.4957   -6.2842    0.9241 C   0  0  0  0  0  0  0  0  0  0  0  0
    5.0620   -5.2760   -0.1418 C   0  0  0  0  0  0  0  0  0  0  0  0
    4.0747   -4.3649    0.4837 C   0  0  0  0  0  0  0  0  0  0  0  0
    3.8218   -3.0871    0.1755 N   0  0  0  0  0  0  0  0  0  0  0  0
    2.9146   -2.5697    1.0579 C   0  0  0  0  0  0  0  0  0  0  0  0
    2.5984   -3.5827    1.9277 C   0  0  0  0  0  0  0  0  0  0  0  0
    3.3063   -4.6963    1.5361 N   0  0  0  0  0  0  0  0  0  0  0  0
    4.5649   -5.4830    3.8419 H   0  0  0  0  0  0  0  0  0  0  0  0
    3.6115   -6.9420    4.1246 H   0  0  0  0  0  0  0  0  0  0  0  0
    2.8283   -5.3767    4.1796 H   0  0  0  0  0  0  0  0  0  0  0  0
   -0.1969   -8.2493    1.3169 H   0  0  0  0  0  0  0  0  0  0  0  0
    0.5490   -9.7406    1.7980 H   0  0  0  0  0  0  0  0  0  0  0  0
    0.2391   -9.2909    4.1696 H   0  0  0  0  0  0  0  0  0  0  0  0
   -0.2667   -7.6381    3.8617 H   0  0  0  0  0  0  0  0  0  0  0  0
   -1.7917   -9.7242    3.9575 H   0  0  0  0  0  0  0  0  0  0  0  0
    3.1765   -9.0946    3.1521 H   0  0  0  0  0  0  0  0  0  0  0  0
    2.7415   -9.8789    1.6523 H   0  0  0  0  0  0  0  0  0  0  0  0
    6.0192   -5.7620    1.7269 H   0  0  0  0  0  0  0  0  0  0  0  0
    6.2243   -6.9744    0.5002 H   0  0  0  0  0  0  0  0  0  0  0  0
    5.8954   -4.6761   -0.5054 H   0  0  0  0  0  0  0  0  0  0  0  0
    4.5914   -5.7712   -0.9905 H   0  0  0  0  0  0  0  0  0  0  0  0
    2.5610   -1.5502    1.0060 H   0  0  0  0  0  0  0  0  0  0  0  0
    1.9121   -3.5968    2.7628 H   0  0  0  0  0  0  0  0  0  0  0  0
    4.2533   -2.5707   -0.5822 H   0  0  0  0  0  0  0  0  0  0  0  0
  2  1  1  1
  1 20  1  0
  1 21  1  0
  1 22  1  0
  2 12  1  0
  2 19  1  0
  2  3  1  0
  3  4  2  0
  3  5  1  0
  5  6  1  0
  5  9  1  0
  6  7  1  0
  6 23  1  0
  6 24  1  0
  7  8  1  0
  7 25  1  0
  7 26  1  0
  8 27  1  0
  9 10  1  0
  9 28  1  0
  9 29  1  0
 10 11  2  0
 10 12  1  0
 12 13  1  0
 13 14  1  0
 13 30  1  0
 13 31  1  0
 14 15  1  0
 14 32  1  0
 14 33  1  0
 15 19  1  0
 15 16  2  0
 16 17  1  0
 16 36  1  0
 17 18  2  0
 17 34  1  0
 18 19  1  0
 18 35  1  0
M  CHG  1  16   1
M  END
>  <i_m_ct_stereo_status>  (150) 
1

>  <s_m_source_file>  (150) 
/var/tmp/pbs.5076255.sched01/tmp2djcgp0g/84b3bpyveh.sdf

>  <i_m_source_file_index>  (150) 
4

>  <i_lp_mmshare_version>  (150) 
48012

>  <i_f3d_flags>  (150) 
0

>  <s_epik_input>  (150) 
W09IXVtDSDJdW0NIMl1OKEMxPU8pW0NIMl1DKD1PKU4oW0NAXTEyW0NIM10pW0NIMl1bQ0gyXWMzbjJbY0hdW2NIXW4z

>  <s_epik_cmdline>  (150) 
J2VwaWtfcHl0aG9uJywgJy1waHQnLCAnMi4wJywgJy1waCcsICc3LjAnLCAnLXRuJywgJzgnLCAnLW1hJywgJzIwMCcsICctaW1hZScsICc8aW5maWxlLm1hZT4nLCAnLW9tYWUnLCAnPG91dGZpbGUubWFlPic=

>  <r_lp_tautomer_probability>  (150) 
1

>  <r_epik_Ionization_Penalty>  (150) 
0.323006

>  <r_epik_Ionization_Penalty_Charging>  (150) 
0

>  <r_epik_Ionization_Penalty_Neutral>  (150) 
0.323006

>  <r_epik_State_Penalty>  (150) 
0.317666

>  <r_epik_Charging_Adjusted_Penalty>  (150) 
0.317666

>  <i_epik_Tot_Q>  (150) 
1

>  <i_epik_Tot_abs_Q>  (150) 
1

>  <s_lp_Force_Field>  (150) 
OPLS3e

>  <r_lp_Energy>  (150) 
28.8369

>  <b_lp_Chiralities_Consistent>  (150) 
1

>  <s_lp_Variant>  (150) 
51:0-1

>  <s_i_glide_gridfile>  (150) 
pfpi4k_grid

>  <i_i_glide_lignum>  (150) 
4

>  <i_i_glide_rotatable_bonds>  (150) 
3

>  <r_i_docking_score>  (150) 
-4.05443

>  <r_i_glide_ligand_efficiency>  (150) 
-0.213391

>  <r_i_glide_ligand_efficiency_sa>  (150) 
-0.569414

>  <r_i_glide_ligand_efficiency_ln>  (150) 
-1.02789

>  <r_i_glide_gscore>  (150) 
-4.05443

>  <r_i_glide_lipo>  (150) 
-0.0947956

>  <r_i_glide_hbond>  (150) 
-0.285701

>  <r_i_glide_metal>  (150) 
-0

>  <r_i_glide_rewards>  (150) 
-1.75049

>  <r_i_glide_evdw>  (150) 
-18.1471

>  <r_i_glide_ecoul>  (150) 
-9.71662

>  <r_i_glide_erotb>  (150) 
0.505641

>  <r_i_glide_esite>  (150) 
-0.0642389

>  <r_i_glide_emodel>  (150) 
-36.4423

>  <r_i_glide_energy>  (150) 
-27.8638

>  <r_i_glide_einternal>  (150) 
1.50449

>  <r_i_glide_intrahb_reward>  (150) 
-0

>  <i_i_glide_confnum>  (150) 
3

>  <i_i_glide_posenum>  (150) 
1

>  <r_i_glide_eff_state_penalty>  (150) 
0

>  <ligand_id>  (150) 
51

>  <original_smiles>  (150) 
CC12C(=O)N(CCO)CC(=O)N1CCc1nccn12

>  <smiles>  (150) 
[H]OC([H])([H])C([H])([H])N1C(=O)C2(C([H])([H])[H])N(C(=O)C1([H])[H])C([H])([H])C([H])([H])c1n2c([H])c([H])[n+]1[H]

$$$$
51:1:0
     RDKit          3D

 35 37  0  0  1  0  0  0  0  0999 V2000
    4.3793   -1.4854    0.1772 C   0  0  0  0  0  0  0  0  0  0  0  0
    4.2638   -2.7558   -0.6918 C   0  0  2  0  0  0  0  0  0  0  0  0
    3.0781   -3.6126   -0.1549 C   0  0  0  0  0  0  0  0  0  0  0  0
    1.9786   -3.5329   -0.6793 O   0  0  0  0  0  0  0  0  0  0  0  0
    3.3282   -4.4494    0.8965 N   0  0  0  0  0  0  0  0  0  0  0  0
    2.2587   -5.1525    1.6244 C   0  0  0  0  0  0  0  0  0  0  0  0
    1.7303   -6.3768    0.8557 C   0  0  0  0  0  0  0  0  0  0  0  0
    0.3741   -6.6232    1.1770 O   0  0  0  0  0  0  0  0  0  0  0  0
    4.6804   -4.6320    1.4279 C   0  0  0  0  0  0  0  0  0  0  0  0
    5.7947   -4.4026    0.4031 C   0  0  0  0  0  0  0  0  0  0  0  0
    6.8303   -5.0488    0.5076 O   0  0  0  0  0  0  0  0  0  0  0  0
    5.5421   -3.5086   -0.5982 N   0  0  0  0  0  0  0  0  0  0  0  0
    6.5303   -3.2864   -1.6713 C   0  0  0  0  0  0  0  0  0  0  0  0
    5.8632   -3.5912   -3.0149 C   0  0  0  0  0  0  0  0  0  0  0  0
    4.6733   -2.7374   -3.1750 C   0  0  0  0  0  0  0  0  0  0  0  0
    4.2126   -2.2568   -4.3165 N   0  0  0  0  0  0  0  0  0  0  0  0
    3.1337   -1.4615   -3.9454 C   0  0  0  0  0  0  0  0  0  0  0  0
    3.0155   -1.5163   -2.5851 C   0  0  0  0  0  0  0  0  0  0  0  0
    4.0037   -2.3527   -2.0917 N   0  0  0  0  0  0  0  0  0  0  0  0
    5.1628   -0.8103   -0.1863 H   0  0  0  0  0  0  0  0  0  0  0  0
    4.6163   -1.7318    1.2183 H   0  0  0  0  0  0  0  0  0  0  0  0
    3.4385   -0.9275    0.1976 H   0  0  0  0  0  0  0  0  0  0  0  0
    2.5998   -5.4634    2.6157 H   0  0  0  0  0  0  0  0  0  0  0  0
    1.4598   -4.4420    1.8271 H   0  0  0  0  0  0  0  0  0  0  0  0
    1.8164   -6.2462   -0.2235 H   0  0  0  0  0  0  0  0  0  0  0  0
    2.3224   -7.2553    1.1121 H   0  0  0  0  0  0  0  0  0  0  0  0
    0.1696   -7.5169    0.9232 H   0  0  0  0  0  0  0  0  0  0  0  0
    4.8410   -3.8960    2.2124 H   0  0  0  0  0  0  0  0  0  0  0  0
    4.8059   -5.6240    1.8754 H   0  0  0  0  0  0  0  0  0  0  0  0
    6.8307   -2.2366   -1.6403 H   0  0  0  0  0  0  0  0  0  0  0  0
    7.4465   -3.8436   -1.5654 H   0  0  0  0  0  0  0  0  0  0  0  0
    6.5557   -3.4123   -3.8301 H   0  0  0  0  0  0  0  0  0  0  0  0
    5.5102   -4.6179   -3.0736 H   0  0  0  0  0  0  0  0  0  0  0  0
    2.5244   -0.9399   -4.6583 H   0  0  0  0  0  0  0  0  0  0  0  0
    2.3037   -1.0514   -1.9258 H   0  0  0  0  0  0  0  0  0  0  0  0
  2  1  1  1
  1 20  1  0
  1 21  1  0
  1 22  1  0
  2 12  1  0
  2 19  1  0
  2  3  1  0
  3  4  2  0
  3  5  1  0
  5  6  1  0
  5  9  1  0
  6  7  1  0
  6 23  1  0
  6 24  1  0
  7  8  1  0
  7 25  1  0
  7 26  1  0
  8 27  1  0
  9 10  1  0
  9 28  1  0
  9 29  1  0
 10 11  2  0
 10 12  1  0
 12 13  1  0
 13 14  1  0
 13 30  1  0
 13 31  1  0
 14 15  1  0
 14 32  1  0
 14 33  1  0
 15 19  1  0
 15 16  2  0
 16 17  1  0
 17 18  2  0
 17 34  1  0
 18 19  1  0
 18 35  1  0
M  END
>  <i_m_ct_stereo_status>  (151) 
1

>  <s_m_source_file>  (151) 
/var/tmp/pbs.5076255.sched01/tmp2djcgp0g/84b3bpyveh.sdf

>  <i_m_source_file_index>  (151) 
5

>  <i_lp_mmshare_version>  (151) 
48012

>  <i_f3d_flags>  (151) 
0

>  <s_epik_input>  (151) 
W09IXVtDSDJdW0NIMl1OKEMxPU8pW0NIMl1DKD1PKU4oW0NAXTEyW0NIM10pW0NIMl1bQ0gyXWMzbjJbY0hdW2NIXW4z

>  <s_epik_cmdline>  (151) 
J2VwaWtfcHl0aG9uJywgJy1waHQnLCAnMi4wJywgJy1waCcsICc3LjAnLCAnLXRuJywgJzgnLCAnLW1hJywgJzIwMCcsICctaW1hZScsICc8aW5maWxlLm1hZT4nLCAnLW9tYWUnLCAnPG91dGZpbGUubWFlPic=

>  <r_lp_tautomer_probability>  (151) 
1

>  <r_epik_Ionization_Penalty>  (151) 
0.513619

>  <r_epik_Ionization_Penalty_Charging>  (151) 
0.513619

>  <r_epik_Ionization_Penalty_Neutral>  (151) 
5.29893e-08

>  <r_epik_State_Penalty>  (151) 
0.521065

>  <r_epik_Charging_Adjusted_Penalty>  (151) 
1.03468

>  <i_epik_Tot_Q>  (151) 
0

>  <i_epik_Tot_abs_Q>  (151) 
0

>  <s_lp_Force_Field>  (151) 
OPLS3e

>  <r_lp_Energy>  (151) 
25.6751

>  <b_lp_Chiralities_Consistent>  (151) 
1

>  <s_lp_Variant>  (151) 
51:0-2

>  <s_i_glide_gridfile>  (151) 
pfpi4k_grid

>  <i_i_glide_lignum>  (151) 
5

>  <i_i_glide_rotatable_bonds>  (151) 
3

>  <r_i_docking_score>  (151) 
-4.80638

>  <r_i_glide_ligand_efficiency>  (151) 
-0.252968

>  <r_i_glide_ligand_efficiency_sa>  (151) 
-0.675019

>  <r_i_glide_ligand_efficiency_ln>  (151) 
-1.21852

>  <r_i_glide_gscore>  (151) 
-4.80638

>  <r_i_glide_lipo>  (151) 
-0.402961

>  <r_i_glide_hbond>  (151) 
-0.491994

>  <r_i_glide_metal>  (151) 
-0

>  <r_i_glide_rewards>  (151) 
-1.979

>  <r_i_glide_evdw>  (151) 
-19.2549

>  <r_i_glide_ecoul>  (151) 
-9.73777

>  <r_i_glide_erotb>  (151) 
0.508974

>  <r_i_glide_esite>  (151) 
-0.0179917

>  <r_i_glide_emodel>  (151) 
-36.3889

>  <r_i_glide_energy>  (151) 
-28.9927

>  <r_i_glide_einternal>  (151) 
2.74095

>  <r_i_glide_intrahb_reward>  (151) 
-0

>  <i_i_glide_confnum>  (151) 
2

>  <i_i_glide_posenum>  (151) 
3

>  <r_i_glide_eff_state_penalty>  (151) 
0

>  <ligand_id>  (151) 
51

>  <original_smiles>  (151) 
CC12C(=O)N(CCO)CC(=O)N1CCc1nccn12

>  <smiles>  (151) 
[H]OC([H])([H])C([H])([H])N1C(=O)C2(C([H])([H])[H])N(C(=O)C1([H])[H])C([H])([H])C([H])([H])c1nc([H])c([H])n12

$$$$
51:1:1
     RDKit          3D

 35 37  0  0  1  0  0  0  0  0999 V2000
    4.6729   -5.3962    0.0193 C   0  0  0  0  0  0  0  0  0  0  0  0
    4.4460   -3.8632    0.0834 C   0  0  2  0  0  0  0  0  0  0  0  0
    3.4778   -3.4758   -1.0821 C   0  0  0  0  0  0  0  0  0  0  0  0
    2.2600   -3.4601   -0.8986 O   0  0  0  0  0  0  0  0  0  0  0  0
    4.0384   -3.2277   -2.2939 N   0  0  0  0  0  0  0  0  0  0  0  0
    3.2408   -3.0715   -3.5164 C   0  0  0  0  0  0  0  0  0  0  0  0
    2.8841   -1.6056   -3.7971 C   0  0  0  0  0  0  0  0  0  0  0  0
    3.8267   -1.0306   -4.6767 O   0  0  0  0  0  0  0  0  0  0  0  0
    5.4890   -3.2709   -2.5010 C   0  0  0  0  0  0  0  0  0  0  0  0
    6.3004   -2.8741   -1.2670 C   0  0  0  0  0  0  0  0  0  0  0  0
    7.3595   -2.2627   -1.4263 O   0  0  0  0  0  0  0  0  0  0  0  0
    5.7674   -3.1750   -0.0597 N   0  0  0  0  0  0  0  0  0  0  0  0
    6.4713   -2.7976    1.1799 C   0  0  0  0  0  0  0  0  0  0  0  0
    5.5610   -1.8926    2.0157 C   0  0  0  0  0  0  0  0  0  0  0  0
    4.2873   -2.6088    2.2751 C   0  0  0  0  0  0  0  0  0  0  0  0
    3.5392   -2.4889    3.3659 N   0  0  0  0  0  0  0  0  0  0  0  0
    2.5152   -3.4063    3.1766 C   0  0  0  0  0  0  0  0  0  0  0  0
    2.6943   -4.0499    1.9784 C   0  0  0  0  0  0  0  0  0  0  0  0
    3.8388   -3.5161    1.3876 N   0  0  0  0  0  0  0  0  0  0  0  0
    5.3080   -5.7516    0.8359 H   0  0  0  0  0  0  0  0  0  0  0  0
    5.1537   -5.6896   -0.9154 H   0  0  0  0  0  0  0  0  0  0  0  0
    3.7313   -5.9492    0.0619 H   0  0  0  0  0  0  0  0  0  0  0  0
    3.7473   -3.5241   -4.3706 H   0  0  0  0  0  0  0  0  0  0  0  0
    2.3155   -3.6390   -3.4190 H   0  0  0  0  0  0  0  0  0  0  0  0
    1.9311   -1.5678   -4.3228 H   0  0  0  0  0  0  0  0  0  0  0  0
    2.7856   -1.0142   -2.8844 H   0  0  0  0  0  0  0  0  0  0  0  0
    3.5368   -0.1490   -4.8650 H   0  0  0  0  0  0  0  0  0  0  0  0
    5.7625   -4.2892   -2.7560 H   0  0  0  0  0  0  0  0  0  0  0  0
    5.7815   -2.6525   -3.3503 H   0  0  0  0  0  0  0  0  0  0  0  0
    6.7008   -3.7092    1.7370 H   0  0  0  0  0  0  0  0  0  0  0  0
    7.4268   -2.2997    1.0056 H   0  0  0  0  0  0  0  0  0  0  0  0
    6.0349   -1.6396    2.9618 H   0  0  0  0  0  0  0  0  0  0  0  0
    5.3536   -0.9586    1.4906 H   0  0  0  0  0  0  0  0  0  0  0  0
    1.7352   -3.5331    3.9122 H   0  0  0  0  0  0  0  0  0  0  0  0
    2.1156   -4.8214    1.4921 H   0  0  0  0  0  0  0  0  0  0  0  0
  2  1  1  1
  1 20  1  0
  1 21  1  0
  1 22  1  0
  2 12  1  0
  2 19  1  0
  2  3  1  0
  3  4  2  0
  3  5  1  0
  5  6  1  0
  5  9  1  0
  6  7  1  0
  6 23  1  0
  6 24  1  0
  7  8  1  0
  7 25  1  0
  7 26  1  0
  8 27  1  0
  9 10  1  0
  9 28  1  0
  9 29  1  0
 10 11  2  0
 10 12  1  0
 12 13  1  0
 13 14  1  0
 13 30  1  0
 13 31  1  0
 14 15  1  0
 14 32  1  0
 14 33  1  0
 15 19  1  0
 15 16  2  0
 16 17  1  0
 17 18  2  0
 17 34  1  0
 18 19  1  0
 18 35  1  0
M  END
>  <i_m_ct_stereo_status>  (152) 
1

>  <s_m_source_file>  (152) 
/var/tmp/pbs.5076255.sched01/tmp2djcgp0g/84b3bpyveh.sdf

>  <i_m_source_file_index>  (152) 
5

>  <i_lp_mmshare_version>  (152) 
48012

>  <i_f3d_flags>  (152) 
0

>  <s_epik_input>  (152) 
W09IXVtDSDJdW0NIMl1OKEMxPU8pW0NIMl1DKD1PKU4oW0NAXTEyW0NIM10pW0NIMl1bQ0gyXWMzbjJbY0hdW2NIXW4z

>  <s_epik_cmdline>  (152) 
J2VwaWtfcHl0aG9uJywgJy1waHQnLCAnMi4wJywgJy1waCcsICc3LjAnLCAnLXRuJywgJzgnLCAnLW1hJywgJzIwMCcsICctaW1hZScsICc8aW5maWxlLm1hZT4nLCAnLW9tYWUnLCAnPG91dGZpbGUubWFlPic=

>  <r_lp_tautomer_probability>  (152) 
1

>  <r_epik_Ionization_Penalty>  (152) 
0.513619

>  <r_epik_Ionization_Penalty_Charging>  (152) 
0.513619

>  <r_epik_Ionization_Penalty_Neutral>  (152) 
5.29893e-08

>  <r_epik_State_Penalty>  (152) 
0.521065

>  <r_epik_Charging_Adjusted_Penalty>  (152) 
1.03468

>  <i_epik_Tot_Q>  (152) 
0

>  <i_epik_Tot_abs_Q>  (152) 
0

>  <s_lp_Force_Field>  (152) 
OPLS3e

>  <r_lp_Energy>  (152) 
25.6751

>  <b_lp_Chiralities_Consistent>  (152) 
1

>  <s_lp_Variant>  (152) 
51:0-2

>  <s_i_glide_gridfile>  (152) 
pfpi4k_grid

>  <i_i_glide_lignum>  (152) 
5

>  <i_i_glide_rotatable_bonds>  (152) 
3

>  <r_i_docking_score>  (152) 
-4.53809

>  <r_i_glide_ligand_efficiency>  (152) 
-0.238847

>  <r_i_glide_ligand_efficiency_sa>  (152) 
-0.63734

>  <r_i_glide_ligand_efficiency_ln>  (152) 
-1.1505

>  <r_i_glide_gscore>  (152) 
-4.53809

>  <r_i_glide_lipo>  (152) 
-0.737146

>  <r_i_glide_hbond>  (152) 
-0.470605

>  <r_i_glide_metal>  (152) 
-0

>  <r_i_glide_rewards>  (152) 
-1.7962

>  <r_i_glide_evdw>  (152) 
-24.129

>  <r_i_glide_ecoul>  (152) 
-5.39433

>  <r_i_glide_erotb>  (152) 
0.508974

>  <r_i_glide_esite>  (152) 
-0.0275143

>  <r_i_glide_emodel>  (152) 
-36.2445

>  <r_i_glide_energy>  (152) 
-29.5233

>  <r_i_glide_einternal>  (152) 
3.68182

>  <r_i_glide_intrahb_reward>  (152) 
-0

>  <i_i_glide_confnum>  (152) 
2

>  <i_i_glide_posenum>  (152) 
2

>  <r_i_glide_eff_state_penalty>  (152) 
0

>  <ligand_id>  (152) 
51

>  <original_smiles>  (152) 
CC12C(=O)N(CCO)CC(=O)N1CCc1nccn12

>  <smiles>  (152) 
[H]OC([H])([H])C([H])([H])N1C(=O)C2(C([H])([H])[H])N(C(=O)C1([H])[H])C([H])([H])C([H])([H])c1nc([H])c([H])n12

$$$$
51:1:2
     RDKit          3D

 35 37  0  0  1  0  0  0  0  0999 V2000
    4.6084   -5.5854   -0.1552 C   0  0  0  0  0  0  0  0  0  0  0  0
    4.3745   -4.0992    0.2147 C   0  0  2  0  0  0  0  0  0  0  0  0
    3.4774   -3.4690   -0.8992 C   0  0  0  0  0  0  0  0  0  0  0  0
    2.2498   -3.4728   -0.7832 O   0  0  0  0  0  0  0  0  0  0  0  0
    4.1062   -2.9829   -1.9985 N   0  0  0  0  0  0  0  0  0  0  0  0
    3.3734   -2.5595   -3.2008 C   0  0  0  0  0  0  0  0  0  0  0  0
    3.3932   -1.0315   -3.3930 C   0  0  0  0  0  0  0  0  0  0  0  0
    3.4287   -0.7344   -4.7739 O   0  0  0  0  0  0  0  0  0  0  0  0
    5.5729   -3.0210   -2.1240 C   0  0  0  0  0  0  0  0  0  0  0  0
    6.3099   -2.8809   -0.7893 C   0  0  0  0  0  0  0  0  0  0  0  0
    7.3784   -2.2601   -0.7662 O   0  0  0  0  0  0  0  0  0  0  0  0
    5.7018   -3.4111    0.2984 N   0  0  0  0  0  0  0  0  0  0  0  0
    6.3243   -3.3182    1.6309 C   0  0  0  0  0  0  0  0  0  0  0  0
    5.3666   -2.5949    2.5844 C   0  0  0  0  0  0  0  0  0  0  0  0
    4.0767   -3.3286    2.6059 C   0  0  0  0  0  0  0  0  0  0  0  0
    3.2572   -3.4267    3.6485 N   0  0  0  0  0  0  0  0  0  0  0  0
    2.2505   -4.2735    3.2072 C   0  0  0  0  0  0  0  0  0  0  0  0
    2.5088   -4.6567    1.9152 C   0  0  0  0  0  0  0  0  0  0  0  0
    3.6874   -4.0247    1.5226 N   0  0  0  0  0  0  0  0  0  0  0  0
    5.1887   -6.1129    0.6075 H   0  0  0  0  0  0  0  0  0  0  0  0
    5.1433   -5.6801   -1.1019 H   0  0  0  0  0  0  0  0  0  0  0  0
    3.6654   -6.1200   -0.2896 H   0  0  0  0  0  0  0  0  0  0  0  0
    3.8263   -3.0690   -4.0530 H   0  0  0  0  0  0  0  0  0  0  0  0
    2.3355   -2.8971   -3.1950 H   0  0  0  0  0  0  0  0  0  0  0  0
    2.5351   -0.5553   -2.9199 H   0  0  0  0  0  0  0  0  0  0  0  0
    4.2739   -0.5759   -2.9435 H   0  0  0  0  0  0  0  0  0  0  0  0
    2.6257   -1.0366   -5.1809 H   0  0  0  0  0  0  0  0  0  0  0  0
    5.8656   -3.9690   -2.5717 H   0  0  0  0  0  0  0  0  0  0  0  0
    5.9253   -2.2513   -2.8040 H   0  0  0  0  0  0  0  0  0  0  0  0
    6.5169   -4.3290    1.9990 H   0  0  0  0  0  0  0  0  0  0  0  0
    7.2900   -2.8150    1.6146 H   0  0  0  0  0  0  0  0  0  0  0  0
    5.7809   -2.5587    3.5905 H   0  0  0  0  0  0  0  0  0  0  0  0
    5.1960   -1.5664    2.2592 H   0  0  0  0  0  0  0  0  0  0  0  0
    1.4255   -4.5404    3.8498 H   0  0  0  0  0  0  0  0  0  0  0  0
    1.9648   -5.3023    1.2421 H   0  0  0  0  0  0  0  0  0  0  0  0
  2  1  1  6
  1 20  1  0
  1 21  1  0
  1 22  1  0
  2 12  1  0
  2 19  1  0
  2  3  1  0
  3  4  2  0
  3  5  1  0
  5  6  1  0
  5  9  1  0
  6  7  1  0
  6 23  1  0
  6 24  1  0
  7  8  1  0
  7 25  1  0
  7 26  1  0
  8 27  1  0
  9 10  1  0
  9 28  1  0
  9 29  1  0
 10 11  2  0
 10 12  1  0
 12 13  1  0
 13 14  1  0
 13 30  1  0
 13 31  1  0
 14 15  1  0
 14 32  1  0
 14 33  1  0
 15 19  1  0
 15 16  2  0
 16 17  1  0
 17 18  2  0
 17 34  1  0
 18 19  1  0
 18 35  1  0
M  END
>  <i_m_ct_stereo_status>  (153) 
1

>  <s_m_source_file>  (153) 
/var/tmp/pbs.5076255.sched01/tmp2djcgp0g/84b3bpyveh.sdf

>  <i_m_source_file_index>  (153) 
5

>  <i_lp_mmshare_version>  (153) 
48012

>  <i_f3d_flags>  (153) 
0

>  <s_epik_input>  (153) 
W09IXVtDSDJdW0NIMl1OKEMxPU8pW0NIMl1DKD1PKU4oW0NAXTEyW0NIM10pW0NIMl1bQ0gyXWMzbjJbY0hdW2NIXW4z

>  <s_epik_cmdline>  (153) 
J2VwaWtfcHl0aG9uJywgJy1waHQnLCAnMi4wJywgJy1waCcsICc3LjAnLCAnLXRuJywgJzgnLCAnLW1hJywgJzIwMCcsICctaW1hZScsICc8aW5maWxlLm1hZT4nLCAnLW9tYWUnLCAnPG91dGZpbGUubWFlPic=

>  <r_lp_tautomer_probability>  (153) 
1

>  <r_epik_Ionization_Penalty>  (153) 
0.513619

>  <r_epik_Ionization_Penalty_Charging>  (153) 
0.513619

>  <r_epik_Ionization_Penalty_Neutral>  (153) 
5.29893e-08

>  <r_epik_State_Penalty>  (153) 
0.521065

>  <r_epik_Charging_Adjusted_Penalty>  (153) 
1.03468

>  <i_epik_Tot_Q>  (153) 
0

>  <i_epik_Tot_abs_Q>  (153) 
0

>  <s_lp_Force_Field>  (153) 
OPLS3e

>  <r_lp_Energy>  (153) 
25.6751

>  <b_lp_Chiralities_Consistent>  (153) 
1

>  <s_lp_Variant>  (153) 
51:0-2

>  <s_i_glide_gridfile>  (153) 
pfpi4k_grid

>  <i_i_glide_lignum>  (153) 
5

>  <i_i_glide_rotatable_bonds>  (153) 
3

>  <r_i_docking_score>  (153) 
-4.26209

>  <r_i_glide_ligand_efficiency>  (153) 
-0.22432

>  <r_i_glide_ligand_efficiency_sa>  (153) 
-0.598577

>  <r_i_glide_ligand_efficiency_ln>  (153) 
-1.08053

>  <r_i_glide_gscore>  (153) 
-4.26209

>  <r_i_glide_lipo>  (153) 
-0.489881

>  <r_i_glide_hbond>  (153) 
-0.57882

>  <r_i_glide_metal>  (153) 
-0

>  <r_i_glide_rewards>  (153) 
-1.80007

>  <r_i_glide_evdw>  (153) 
-23.33

>  <r_i_glide_ecoul>  (153) 
-4.78068

>  <r_i_glide_erotb>  (153) 
0.508974

>  <r_i_glide_esite>  (153) 
-0.0186905

>  <r_i_glide_emodel>  (153) 
-34.6418

>  <r_i_glide_energy>  (153) 
-28.1107

>  <r_i_glide_einternal>  (153) 
2.57407

>  <r_i_glide_intrahb_reward>  (153) 
-0

>  <i_i_glide_confnum>  (153) 
4

>  <i_i_glide_posenum>  (153) 
11

>  <r_i_glide_eff_state_penalty>  (153) 
0

>  <ligand_id>  (153) 
51

>  <original_smiles>  (153) 
CC12C(=O)N(CCO)CC(=O)N1CCc1nccn12

>  <smiles>  (153) 
[H]OC([H])([H])C([H])([H])N1C(=O)C2(C([H])([H])[H])N(C(=O)C1([H])[H])C([H])([H])C([H])([H])c1nc([H])c([H])n12

$$$$
52:0:0
     RDKit          3D

 29 31  0  0  1  0  0  0  0  0999 V2000
    2.2383    1.4783    2.8918 C   0  0  0  0  0  0  0  0  0  0  0  0
    1.4758    0.9855    1.8789 C   0  0  0  0  0  0  0  0  0  0  0  0
    2.1505   -0.0900    1.3810 N   0  0  0  0  0  0  0  0  0  0  0  0
    3.3176   -0.2521    2.0079 C   0  0  0  0  0  0  0  0  0  0  0  0
    4.3760   -1.2674    1.7006 C   0  0  0  0  0  0  0  0  0  0  0  0
    4.2093   -2.0295    0.3518 C   0  0  2  0  0  0  0  0  0  0  0  0
    5.3826   -2.9988    0.0767 C   0  0  0  0  0  0  0  0  0  0  0  0
    5.2308   -3.8651   -1.2016 C   0  0  0  0  0  0  0  0  0  0  0  0
    4.6615   -3.0492   -2.3269 C   0  0  0  0  0  0  0  0  0  0  0  0
    4.6173   -3.4547   -3.5721 N   0  0  0  0  0  0  0  0  0  0  0  0
    3.9745   -2.4220   -4.2643 O   0  0  0  0  0  0  0  0  0  0  0  0
    3.6546   -1.4329   -3.3974 C   0  0  0  0  0  0  0  0  0  0  0  0
    4.1083   -1.7759   -2.1489 C   0  0  0  0  0  0  0  0  0  0  0  0
    3.9894   -1.0670   -0.8585 C   0  0  0  0  0  0  0  0  0  0  0  0
    3.3616    0.6905    2.9593 N   0  0  0  0  0  0  0  0  0  0  0  0
    1.8168   -0.6311    0.5783 H   0  0  0  0  0  0  0  0  0  0  0  0
    2.0610    2.3369    3.5320 H   0  0  0  0  0  0  0  0  0  0  0  0
    0.5399    1.3170    1.4456 H   0  0  0  0  0  0  0  0  0  0  0  0
    5.3205   -0.7177    1.7179 H   0  0  0  0  0  0  0  0  0  0  0  0
    4.3806   -1.9492    2.5565 H   0  0  0  0  0  0  0  0  0  0  0  0
    3.3238   -2.6621    0.4351 H   0  0  0  0  0  0  0  0  0  0  0  0
    6.2872   -2.4032   -0.0262 H   0  0  0  0  0  0  0  0  0  0  0  0
    5.5632   -3.6625    0.9222 H   0  0  0  0  0  0  0  0  0  0  0  0
    6.1996   -4.2478   -1.4871 H   0  0  0  0  0  0  0  0  0  0  0  0
    4.5556   -4.6977   -0.9972 H   0  0  0  0  0  0  0  0  0  0  0  0
    3.1267   -0.5717   -3.7721 H   0  0  0  0  0  0  0  0  0  0  0  0
    2.9949   -0.6623   -0.8864 H   0  0  0  0  0  0  0  0  0  0  0  0
    4.6917   -0.2402   -0.7971 H   0  0  0  0  0  0  0  0  0  0  0  0
    4.1336    0.8320    3.5946 H   0  0  0  0  0  0  0  0  0  0  0  0
  1 15  1  0
  1  2  2  0
  1 17  1  0
  2  3  1  0
  2 18  1  0
  3 16  1  0
  3  4  1  0
  4  5  1  0
  4 15  2  0
  5  6  1  0
  5 19  1  0
  5 20  1  0
  6 14  1  0
  6  7  1  0
  6 21  1  1
  7  8  1  0
  7 22  1  0
  7 23  1  0
  8  9  1  0
  8 24  1  0
  8 25  1  0
  9 13  1  0
  9 10  2  0
 10 11  1  0
 11 12  1  0
 12 13  2  0
 12 26  1  0
 13 14  1  0
 14 27  1  0
 14 28  1  0
 15 29  1  0
M  CHG  1  15   1
M  END
>  <i_m_ct_stereo_status>  (154) 
1

>  <s_m_source_file>  (154) 
/var/tmp/pbs.5076255.sched01/tmp2djcgp0g/84b3bpyveh.sdf

>  <i_m_source_file_index>  (154) 
6

>  <i_lp_mmshare_version>  (154) 
48012

>  <i_f3d_flags>  (154) 
0

>  <s_epik_input>  (154) 
bjFbY0hdW2NIXVtuSF1jMVtDSDJdW0NASF0oW0NIMl1bQ0gyXTIpW0NIMl1jKGMyMylbY0hdb24z

>  <s_epik_cmdline>  (154) 
J2VwaWtfcHl0aG9uJywgJy1waHQnLCAnMi4wJywgJy1waCcsICc3LjAnLCAnLXRuJywgJzgnLCAnLW1hJywgJzIwMCcsICctaW1hZScsICc8aW5maWxlLm1hZT4nLCAnLW9tYWUnLCAnPG91dGZpbGUubWFlPic=

>  <r_lp_tautomer_probability>  (154) 
1

>  <r_epik_Ionization_Penalty>  (154) 
0.266748

>  <r_epik_Ionization_Penalty_Charging>  (154) 
0

>  <r_epik_Ionization_Penalty_Neutral>  (154) 
0.266748

>  <r_epik_State_Penalty>  (154) 
0.258713

>  <r_epik_Charging_Adjusted_Penalty>  (154) 
0.258713

>  <i_epik_Tot_Q>  (154) 
1

>  <i_epik_Tot_abs_Q>  (154) 
1

>  <s_lp_Force_Field>  (154) 
OPLS3e

>  <r_lp_Energy>  (154) 
13.4657

>  <b_lp_Chiralities_Consistent>  (154) 
1

>  <s_lp_Variant>  (154) 
52:0-1

>  <s_i_glide_gridfile>  (154) 
pfpi4k_grid

>  <i_i_glide_lignum>  (154) 
6

>  <i_i_glide_rotatable_bonds>  (154) 
2

>  <r_i_docking_score>  (154) 
-3.8735

>  <r_i_glide_ligand_efficiency>  (154) 
-0.258234

>  <r_i_glide_ligand_efficiency_sa>  (154) 
-0.636859

>  <r_i_glide_ligand_efficiency_ln>  (154) 
-1.04462

>  <r_i_glide_gscore>  (154) 
-3.8735

>  <r_i_glide_lipo>  (154) 
-0.294696

>  <r_i_glide_hbond>  (154) 
-0.2

>  <r_i_glide_metal>  (154) 
-0

>  <r_i_glide_rewards>  (154) 
-2.01649

>  <r_i_glide_evdw>  (154) 
-18.8116

>  <r_i_glide_ecoul>  (154) 
-7.12408

>  <r_i_glide_erotb>  (154) 
0.788514

>  <r_i_glide_esite>  (154) 
-0.141644

>  <r_i_glide_emodel>  (154) 
-32.5183

>  <r_i_glide_energy>  (154) 
-25.9356

>  <r_i_glide_einternal>  (154) 
1.36295

>  <r_i_glide_intrahb_reward>  (154) 
-0

>  <i_i_glide_confnum>  (154) 
1

>  <i_i_glide_posenum>  (154) 
16

>  <r_i_glide_eff_state_penalty>  (154) 
0

>  <ligand_id>  (154) 
52

>  <original_smiles>  (154) 
c1c[nH]c(CC2CCc3nocc3C2)n1

>  <smiles>  (154) 
[H]c1onc2c1C([H])([H])C([H])(C([H])([H])c1n([H])c([H])c([H])[n+]1[H])C([H])([H])C2([H])[H]

$$$$
52:0:1
     RDKit          3D

 29 31  0  0  1  0  0  0  0  0999 V2000
    1.6316    1.1092    1.9331 C   0  0  0  0  0  0  0  0  0  0  0  0
    2.3625    1.4377    3.0463 C   0  0  0  0  0  0  0  0  0  0  0  0
    3.3592    0.4967    3.1551 N   0  0  0  0  0  0  0  0  0  0  0  0
    3.2685   -0.3849    2.1452 C   0  0  0  0  0  0  0  0  0  0  0  0
    4.1632   -1.5700    1.9270 C   0  0  0  0  0  0  0  0  0  0  0  0
    4.4507   -1.9302    0.4526 C   0  0  2  0  0  0  0  0  0  0  0  0
    4.9925   -0.7169   -0.3530 C   0  0  0  0  0  0  0  0  0  0  0  0
    5.3440   -1.0142   -1.8231 C   0  0  0  0  0  0  0  0  0  0  0  0
    4.3098   -1.9024   -2.4373 C   0  0  0  0  0  0  0  0  0  0  0  0
    4.2125   -2.0903   -3.7362 N   0  0  0  0  0  0  0  0  0  0  0  0
    3.1606   -2.9950   -3.9077 O   0  0  0  0  0  0  0  0  0  0  0  0
    2.6507   -3.2840   -2.6728 C   0  0  0  0  0  0  0  0  0  0  0  0
    3.3659   -2.6512   -1.6995 C   0  0  0  0  0  0  0  0  0  0  0  0
    3.2344   -2.6521   -0.2004 C   0  0  0  0  0  0  0  0  0  0  0  0
    2.2118   -0.0158    1.4134 N   0  0  0  0  0  0  0  0  0  0  0  0
    4.0716    0.4780    3.8762 H   0  0  0  0  0  0  0  0  0  0  0  0
    0.7725    1.5784    1.4740 H   0  0  0  0  0  0  0  0  0  0  0  0
    2.2358    2.2631    3.7353 H   0  0  0  0  0  0  0  0  0  0  0  0
    5.0975   -1.3293    2.4391 H   0  0  0  0  0  0  0  0  0  0  0  0
    3.7139   -2.4091    2.4586 H   0  0  0  0  0  0  0  0  0  0  0  0
    5.2490   -2.6690    0.4275 H   0  0  0  0  0  0  0  0  0  0  0  0
    4.2481    0.0734   -0.3698 H   0  0  0  0  0  0  0  0  0  0  0  0
    5.8664   -0.2858    0.1340 H   0  0  0  0  0  0  0  0  0  0  0  0
    5.4137   -0.0763   -2.3707 H   0  0  0  0  0  0  0  0  0  0  0  0
    6.2992   -1.5326   -1.8750 H   0  0  0  0  0  0  0  0  0  0  0  0
    1.8168   -3.9675   -2.6428 H   0  0  0  0  0  0  0  0  0  0  0  0
    3.0781   -3.6479    0.2187 H   0  0  0  0  0  0  0  0  0  0  0  0
    2.3228   -2.1354    0.0563 H   0  0  0  0  0  0  0  0  0  0  0  0
    1.8702   -0.4865    0.5663 H   0  0  0  0  0  0  0  0  0  0  0  0
  1 15  1  0
  1  2  2  0
  1 17  1  0
  2  3  1  0
  2 18  1  0
  3 16  1  0
  3  4  1  0
  4  5  1  0
  4 15  2  0
  5  6  1  0
  5 19  1  0
  5 20  1  0
  6 14  1  0
  6  7  1  0
  6 21  1  1
  7  8  1  0
  7 22  1  0
  7 23  1  0
  8  9  1  0
  8 24  1  0
  8 25  1  0
  9 13  1  0
  9 10  2  0
 10 11  1  0
 11 12  1  0
 12 13  2  0
 12 26  1  0
 13 14  1  0
 14 27  1  0
 14 28  1  0
 15 29  1  0
M  CHG  1  15   1
M  END
>  <i_m_ct_stereo_status>  (155) 
1

>  <s_m_source_file>  (155) 
/var/tmp/pbs.5076255.sched01/tmp2djcgp0g/84b3bpyveh.sdf

>  <i_m_source_file_index>  (155) 
6

>  <i_lp_mmshare_version>  (155) 
48012

>  <i_f3d_flags>  (155) 
0

>  <s_epik_input>  (155) 
bjFbY0hdW2NIXVtuSF1jMVtDSDJdW0NASF0oW0NIMl1bQ0gyXTIpW0NIMl1jKGMyMylbY0hdb24z

>  <s_epik_cmdline>  (155) 
J2VwaWtfcHl0aG9uJywgJy1waHQnLCAnMi4wJywgJy1waCcsICc3LjAnLCAnLXRuJywgJzgnLCAnLW1hJywgJzIwMCcsICctaW1hZScsICc8aW5maWxlLm1hZT4nLCAnLW9tYWUnLCAnPG91dGZpbGUubWFlPic=

>  <r_lp_tautomer_probability>  (155) 
1

>  <r_epik_Ionization_Penalty>  (155) 
0.266748

>  <r_epik_Ionization_Penalty_Charging>  (155) 
0

>  <r_epik_Ionization_Penalty_Neutral>  (155) 
0.266748

>  <r_epik_State_Penalty>  (155) 
0.258713

>  <r_epik_Charging_Adjusted_Penalty>  (155) 
0.258713

>  <i_epik_Tot_Q>  (155) 
1

>  <i_epik_Tot_abs_Q>  (155) 
1

>  <s_lp_Force_Field>  (155) 
OPLS3e

>  <r_lp_Energy>  (155) 
13.4657

>  <b_lp_Chiralities_Consistent>  (155) 
1

>  <s_lp_Variant>  (155) 
52:0-1

>  <s_i_glide_gridfile>  (155) 
pfpi4k_grid

>  <i_i_glide_lignum>  (155) 
6

>  <i_i_glide_rotatable_bonds>  (155) 
2

>  <r_i_docking_score>  (155) 
-3.58748

>  <r_i_glide_ligand_efficiency>  (155) 
-0.239166

>  <r_i_glide_ligand_efficiency_sa>  (155) 
-0.589833

>  <r_i_glide_ligand_efficiency_ln>  (155) 
-0.967486

>  <r_i_glide_gscore>  (155) 
-3.58748

>  <r_i_glide_lipo>  (155) 
-0.0598918

>  <r_i_glide_hbond>  (155) 
-0.2

>  <r_i_glide_metal>  (155) 
-0

>  <r_i_glide_rewards>  (155) 
-2.01649

>  <r_i_glide_evdw>  (155) 
-17.5833

>  <r_i_glide_ecoul>  (155) 
-7.57582

>  <r_i_glide_erotb>  (155) 
0.788514

>  <r_i_glide_esite>  (155) 
-0.0840828

>  <r_i_glide_emodel>  (155) 
-31.02

>  <r_i_glide_energy>  (155) 
-25.1591

>  <r_i_glide_einternal>  (155) 
2.96925

>  <r_i_glide_intrahb_reward>  (155) 
-0

>  <i_i_glide_confnum>  (155) 
6

>  <i_i_glide_posenum>  (155) 
30

>  <r_i_glide_eff_state_penalty>  (155) 
0

>  <ligand_id>  (155) 
52

>  <original_smiles>  (155) 
c1c[nH]c(CC2CCc3nocc3C2)n1

>  <smiles>  (155) 
[H]c1onc2c1C([H])([H])C([H])(C([H])([H])c1n([H])c([H])c([H])[n+]1[H])C([H])([H])C2([H])[H]

$$$$
52:0:2
     RDKit          3D

 29 31  0  0  1  0  0  0  0  0999 V2000
    0.8986    1.1521    1.7328 C   0  0  0  0  0  0  0  0  0  0  0  0
    1.4539    1.9152    2.7205 C   0  0  0  0  0  0  0  0  0  0  0  0
    2.6813    1.3609    2.9997 N   0  0  0  0  0  0  0  0  0  0  0  0
    2.8948    0.2883    2.2119 C   0  0  0  0  0  0  0  0  0  0  0  0
    4.1355   -0.5594    2.1905 C   0  0  0  0  0  0  0  0  0  0  0  0
    4.2701   -1.5559    1.0099 C   0  0  2  0  0  0  0  0  0  0  0  0
    5.6239   -2.3074    1.0322 C   0  0  0  0  0  0  0  0  0  0  0  0
    5.7821   -3.3876   -0.0665 C   0  0  0  0  0  0  0  0  0  0  0  0
    5.2402   -2.8833   -1.3751 C   0  0  0  0  0  0  0  0  0  0  0  0
    5.4399   -3.4689   -2.5367 N   0  0  0  0  0  0  0  0  0  0  0  0
    4.7135   -2.7269   -3.4742 O   0  0  0  0  0  0  0  0  0  0  0  0
    4.1120   -1.6935   -2.8253 C   0  0  0  0  0  0  0  0  0  0  0  0
    4.4423   -1.7343   -1.4980 C   0  0  0  0  0  0  0  0  0  0  0  0
    4.0270   -0.8684   -0.3630 C   0  0  0  0  0  0  0  0  0  0  0  0
    1.8017    0.1621    1.4631 N   0  0  0  0  0  0  0  0  0  0  0  0
    3.3520    1.7275    3.6669 H   0  0  0  0  0  0  0  0  0  0  0  0
   -0.0284    1.2495    1.1842 H   0  0  0  0  0  0  0  0  0  0  0  0
    1.0625    2.8066    3.1963 H   0  0  0  0  0  0  0  0  0  0  0  0
    4.9716    0.1438    2.1972 H   0  0  0  0  0  0  0  0  0  0  0  0
    4.1462   -1.0804    3.1507 H   0  0  0  0  0  0  0  0  0  0  0  0
    3.4961   -2.3133    1.1293 H   0  0  0  0  0  0  0  0  0  0  0  0
    6.4160   -1.5722    0.9100 H   0  0  0  0  0  0  0  0  0  0  0  0
    5.7955   -2.7700    2.0016 H   0  0  0  0  0  0  0  0  0  0  0  0
    6.8237   -3.6899   -0.1774 H   0  0  0  0  0  0  0  0  0  0  0  0
    5.2169   -4.2730    0.2202 H   0  0  0  0  0  0  0  0  0  0  0  0
    3.4998   -1.0236   -3.4252 H   0  0  0  0  0  0  0  0  0  0  0  0
    2.9776   -0.6779   -0.5383 H   0  0  0  0  0  0  0  0  0  0  0  0
    4.5681    0.0758   -0.3923 H   0  0  0  0  0  0  0  0  0  0  0  0
    1.6469   -0.5112    0.6992 H   0  0  0  0  0  0  0  0  0  0  0  0
  1 15  1  0
  1  2  2  0
  1 17  1  0
  2  3  1  0
  2 18  1  0
  3 16  1  0
  3  4  1  0
  4  5  1  0
  4 15  2  0
  5  6  1  0
  5 19  1  0
  5 20  1  0
  6 14  1  0
  6  7  1  0
  6 21  1  1
  7  8  1  0
  7 22  1  0
  7 23  1  0
  8  9  1  0
  8 24  1  0
  8 25  1  0
  9 13  1  0
  9 10  2  0
 10 11  1  0
 11 12  1  0
 12 13  2  0
 12 26  1  0
 13 14  1  0
 14 27  1  0
 14 28  1  0
 15 29  1  0
M  CHG  1  15   1
M  END
>  <i_m_ct_stereo_status>  (156) 
1

>  <s_m_source_file>  (156) 
/var/tmp/pbs.5076255.sched01/tmp2djcgp0g/84b3bpyveh.sdf

>  <i_m_source_file_index>  (156) 
6

>  <i_lp_mmshare_version>  (156) 
48012

>  <i_f3d_flags>  (156) 
0

>  <s_epik_input>  (156) 
bjFbY0hdW2NIXVtuSF1jMVtDSDJdW0NASF0oW0NIMl1bQ0gyXTIpW0NIMl1jKGMyMylbY0hdb24z

>  <s_epik_cmdline>  (156) 
J2VwaWtfcHl0aG9uJywgJy1waHQnLCAnMi4wJywgJy1waCcsICc3LjAnLCAnLXRuJywgJzgnLCAnLW1hJywgJzIwMCcsICctaW1hZScsICc8aW5maWxlLm1hZT4nLCAnLW9tYWUnLCAnPG91dGZpbGUubWFlPic=

>  <r_lp_tautomer_probability>  (156) 
1

>  <r_epik_Ionization_Penalty>  (156) 
0.266748

>  <r_epik_Ionization_Penalty_Charging>  (156) 
0

>  <r_epik_Ionization_Penalty_Neutral>  (156) 
0.266748

>  <r_epik_State_Penalty>  (156) 
0.258713

>  <r_epik_Charging_Adjusted_Penalty>  (156) 
0.258713

>  <i_epik_Tot_Q>  (156) 
1

>  <i_epik_Tot_abs_Q>  (156) 
1

>  <s_lp_Force_Field>  (156) 
OPLS3e

>  <r_lp_Energy>  (156) 
13.4657

>  <b_lp_Chiralities_Consistent>  (156) 
1

>  <s_lp_Variant>  (156) 
52:0-1

>  <s_i_glide_gridfile>  (156) 
pfpi4k_grid

>  <i_i_glide_lignum>  (156) 
6

>  <i_i_glide_rotatable_bonds>  (156) 
2

>  <r_i_docking_score>  (156) 
-3.54789

>  <r_i_glide_ligand_efficiency>  (156) 
-0.236526

>  <r_i_glide_ligand_efficiency_sa>  (156) 
-0.583323

>  <r_i_glide_ligand_efficiency_ln>  (156) 
-0.956807

>  <r_i_glide_gscore>  (156) 
-3.54789

>  <r_i_glide_lipo>  (156) 
-0.213255

>  <r_i_glide_hbond>  (156) 
-0.190792

>  <r_i_glide_metal>  (156) 
-0

>  <r_i_glide_rewards>  (156) 
-2.0544

>  <r_i_glide_evdw>  (156) 
-17.6749

>  <r_i_glide_ecoul>  (156) 
-6.00088

>  <r_i_glide_erotb>  (156) 
0.788514

>  <r_i_glide_esite>  (156) 
-0.0940786

>  <r_i_glide_emodel>  (156) 
-29.9034

>  <r_i_glide_energy>  (156) 
-23.6758

>  <r_i_glide_einternal>  (156) 
1.27254

>  <r_i_glide_intrahb_reward>  (156) 
-0

>  <i_i_glide_confnum>  (156) 
1

>  <i_i_glide_posenum>  (156) 
13

>  <r_i_glide_eff_state_penalty>  (156) 
0

>  <ligand_id>  (156) 
52

>  <original_smiles>  (156) 
c1c[nH]c(CC2CCc3nocc3C2)n1

>  <smiles>  (156) 
[H]c1onc2c1C([H])([H])C([H])(C([H])([H])c1n([H])c([H])c([H])[n+]1[H])C([H])([H])C2([H])[H]

$$$$
52:1:0
     RDKit          3D

 28 30  0  0  1  0  0  0  0  0999 V2000
    3.3127   -1.9163   -3.9201 C   0  0  0  0  0  0  0  0  0  0  0  0
    3.4439   -0.7734   -3.1654 C   0  0  0  0  0  0  0  0  0  0  0  0
    4.5076   -1.0138   -2.3151 N   0  0  0  0  0  0  0  0  0  0  0  0
    4.9701   -2.2421   -2.5829 C   0  0  0  0  0  0  0  0  0  0  0  0
    6.1128   -2.8512   -1.8425 C   0  0  0  0  0  0  0  0  0  0  0  0
    5.7128   -3.4968   -0.5005 C   0  0  2  0  0  0  0  0  0  0  0  0
    6.9752   -3.9124    0.3067 C   0  0  0  0  0  0  0  0  0  0  0  0
    6.6681   -4.4937    1.7043 C   0  0  0  0  0  0  0  0  0  0  0  0
    5.4957   -5.4161    1.6450 C   0  0  0  0  0  0  0  0  0  0  0  0
    5.1721   -6.2212    2.6389 N   0  0  0  0  0  0  0  0  0  0  0  0
    4.0094   -6.8772    2.2156 O   0  0  0  0  0  0  0  0  0  0  0  0
    3.6830   -6.4204    0.9764 C   0  0  0  0  0  0  0  0  0  0  0  0
    4.5897   -5.4874    0.5629 C   0  0  0  0  0  0  0  0  0  0  0  0
    4.7106   -4.6693   -0.6919 C   0  0  0  0  0  0  0  0  0  0  0  0
    4.2873   -2.8392   -3.5528 N   0  0  0  0  0  0  0  0  0  0  0  0
    4.8456   -0.3799   -1.6040 H   0  0  0  0  0  0  0  0  0  0  0  0
    2.5938   -2.1385   -4.6913 H   0  0  0  0  0  0  0  0  0  0  0  0
    2.8721    0.1440   -3.1534 H   0  0  0  0  0  0  0  0  0  0  0  0
    6.5700   -3.6020   -2.4895 H   0  0  0  0  0  0  0  0  0  0  0  0
    6.8753   -2.0902   -1.6856 H   0  0  0  0  0  0  0  0  0  0  0  0
    5.2126   -2.7382    0.1055 H   0  0  0  0  0  0  0  0  0  0  0  0
    7.5173   -4.6603   -0.2693 H   0  0  0  0  0  0  0  0  0  0  0  0
    7.6562   -3.0693    0.4191 H   0  0  0  0  0  0  0  0  0  0  0  0
    7.5485   -4.9972    2.1122 H   0  0  0  0  0  0  0  0  0  0  0  0
    6.4197   -3.6748    2.3795 H   0  0  0  0  0  0  0  0  0  0  0  0
    2.7943   -6.8392    0.5337 H   0  0  0  0  0  0  0  0  0  0  0  0
    3.7400   -4.2934   -1.0230 H   0  0  0  0  0  0  0  0  0  0  0  0
    5.0609   -5.3102   -1.4998 H   0  0  0  0  0  0  0  0  0  0  0  0
  1 15  1  0
  1  2  2  0
  1 17  1  0
  2  3  1  0
  2 18  1  0
  3 16  1  0
  3  4  1  0
  4  5  1  0
  4 15  2  0
  5  6  1  0
  5 19  1  0
  5 20  1  0
  6 14  1  0
  6  7  1  0
  6 21  1  1
  7  8  1  0
  7 22  1  0
  7 23  1  0
  8  9  1  0
  8 24  1  0
  8 25  1  0
  9 13  1  0
  9 10  2  0
 10 11  1  0
 11 12  1  0
 12 13  2  0
 12 26  1  0
 13 14  1  0
 14 27  1  0
 14 28  1  0
M  END
>  <i_m_ct_stereo_status>  (157) 
1

>  <s_m_source_file>  (157) 
/var/tmp/pbs.5076255.sched01/tmp2djcgp0g/84b3bpyveh.sdf

>  <i_m_source_file_index>  (157) 
7

>  <i_lp_mmshare_version>  (157) 
48012

>  <i_f3d_flags>  (157) 
0

>  <s_epik_input>  (157) 
bjFbY0hdW2NIXVtuSF1jMVtDSDJdW0NASF0oW0NIMl1bQ0gyXTIpW0NIMl1jKGMyMylbY0hdb24z

>  <s_epik_cmdline>  (157) 
J2VwaWtfcHl0aG9uJywgJy1waHQnLCAnMi4wJywgJy1waCcsICc3LjAnLCAnLXRuJywgJzgnLCAnLW1hJywgJzIwMCcsICctaW1hZScsICc8aW5maWxlLm1hZT4nLCAnLW9tYWUnLCAnPG91dGZpbGUubWFlPic=

>  <r_lp_tautomer_probability>  (157) 
0.5

>  <r_epik_Ionization_Penalty>  (157) 
0.601195

>  <r_epik_Ionization_Penalty_Charging>  (157) 
0.601195

>  <r_epik_Ionization_Penalty_Neutral>  (157) 
2.53733e-08

>  <r_epik_State_Penalty>  (157) 
0.615595

>  <r_epik_Charging_Adjusted_Penalty>  (157) 
1.21679

>  <i_epik_Tot_Q>  (157) 
0

>  <i_epik_Tot_abs_Q>  (157) 
0

>  <s_lp_Force_Field>  (157) 
OPLS3e

>  <r_lp_Energy>  (157) 
9.42438

>  <b_lp_Chiralities_Consistent>  (157) 
1

>  <s_lp_Variant>  (157) 
52:0-2

>  <s_i_glide_gridfile>  (157) 
pfpi4k_grid

>  <i_i_glide_lignum>  (157) 
7

>  <i_i_glide_rotatable_bonds>  (157) 
2

>  <r_i_docking_score>  (157) 
-3.34235

>  <r_i_glide_ligand_efficiency>  (157) 
-0.222824

>  <r_i_glide_ligand_efficiency_sa>  (157) 
-0.54953

>  <r_i_glide_ligand_efficiency_ln>  (157) 
-0.901378

>  <r_i_glide_gscore>  (157) 
-3.34235

>  <r_i_glide_lipo>  (157) 
-0.671069

>  <r_i_glide_hbond>  (157) 
0

>  <r_i_glide_metal>  (157) 
-0

>  <r_i_glide_rewards>  (157) 
-2.20081

>  <r_i_glide_evdw>  (157) 
-20.0715

>  <r_i_glide_ecoul>  (157) 
-1.56004

>  <r_i_glide_erotb>  (157) 
0.795058

>  <r_i_glide_esite>  (157) 
-0.0279507

>  <r_i_glide_emodel>  (157) 
-26.8239

>  <r_i_glide_energy>  (157) 
-21.6316

>  <r_i_glide_einternal>  (157) 
0.217671

>  <r_i_glide_intrahb_reward>  (157) 
-0

>  <i_i_glide_confnum>  (157) 
2

>  <i_i_glide_posenum>  (157) 
16

>  <r_i_glide_eff_state_penalty>  (157) 
0

>  <ligand_id>  (157) 
52

>  <original_smiles>  (157) 
c1c[nH]c(CC2CCc3nocc3C2)n1

>  <smiles>  (157) 
[H]c1nc(C([H])([H])C2([H])C([H])([H])c3c(noc3[H])C([H])([H])C2([H])[H])n([H])c1[H]

$$$$
52:1:1
     RDKit          3D

 28 30  0  0  1  0  0  0  0  0999 V2000
    1.5055   -0.2899    3.0972 C   0  0  0  0  0  0  0  0  0  0  0  0
    1.7875    0.9910    2.6790 C   0  0  0  0  0  0  0  0  0  0  0  0
    3.0201    0.9105    2.0594 N   0  0  0  0  0  0  0  0  0  0  0  0
    3.4283   -0.3638    2.1155 C   0  0  0  0  0  0  0  0  0  0  0  0
    4.7482   -0.8184    1.5720 C   0  0  0  0  0  0  0  0  0  0  0  0
    4.6296   -1.7691    0.3592 C   0  0  2  0  0  0  0  0  0  0  0  0
    5.9953   -2.4220    0.0170 C   0  0  0  0  0  0  0  0  0  0  0  0
    5.9403   -3.4381   -1.1530 C   0  0  0  0  0  0  0  0  0  0  0  0
    5.0684   -2.9259   -2.2578 C   0  0  0  0  0  0  0  0  0  0  0  0
    5.0347   -3.4622   -3.4627 N   0  0  0  0  0  0  0  0  0  0  0  0
    4.0761   -2.7272   -4.1707 O   0  0  0  0  0  0  0  0  0  0  0  0
    3.5751   -1.7672   -3.3498 C   0  0  0  0  0  0  0  0  0  0  0  0
    4.1734   -1.8413   -2.1236 C   0  0  0  0  0  0  0  0  0  0  0  0
    4.0086   -1.0490   -0.8618 C   0  0  0  0  0  0  0  0  0  0  0  0
    2.5549   -1.1406    2.7485 N   0  0  0  0  0  0  0  0  0  0  0  0
    3.5485    1.6855    1.6802 H   0  0  0  0  0  0  0  0  0  0  0  0
    0.6415   -0.6596    3.6285 H   0  0  0  0  0  0  0  0  0  0  0  0
    1.2392    1.9187    2.7746 H   0  0  0  0  0  0  0  0  0  0  0  0
    5.3561    0.0482    1.3032 H   0  0  0  0  0  0  0  0  0  0  0  0
    5.2811   -1.3205    2.3808 H   0  0  0  0  0  0  0  0  0  0  0  0
    3.9653   -2.5910    0.6306 H   0  0  0  0  0  0  0  0  0  0  0  0
    6.6889   -1.6228   -0.2413 H   0  0  0  0  0  0  0  0  0  0  0  0
    6.4122   -2.9149    0.8946 H   0  0  0  0  0  0  0  0  0  0  0  0
    6.9493   -3.6507   -1.5107 H   0  0  0  0  0  0  0  0  0  0  0  0
    5.5258   -4.3791   -0.7877 H   0  0  0  0  0  0  0  0  0  0  0  0
    2.8181   -1.1269   -3.7764 H   0  0  0  0  0  0  0  0  0  0  0  0
    2.9657   -0.8286   -0.6597 H   0  0  0  0  0  0  0  0  0  0  0  0
    4.5006   -0.0865   -0.9812 H   0  0  0  0  0  0  0  0  0  0  0  0
  1 15  1  0
  1  2  2  0
  1 17  1  0
  2  3  1  0
  2 18  1  0
  3 16  1  0
  3  4  1  0
  4  5  1  0
  4 15  2  0
  5  6  1  0
  5 19  1  0
  5 20  1  0
  6 14  1  0
  6  7  1  0
  6 21  1  1
  7  8  1  0
  7 22  1  0
  7 23  1  0
  8  9  1  0
  8 24  1  0
  8 25  1  0
  9 13  1  0
  9 10  2  0
 10 11  1  0
 11 12  1  0
 12 13  2  0
 12 26  1  0
 13 14  1  0
 14 27  1  0
 14 28  1  0
M  END
>  <i_m_ct_stereo_status>  (158) 
1

>  <s_m_source_file>  (158) 
/var/tmp/pbs.5076255.sched01/tmp2djcgp0g/84b3bpyveh.sdf

>  <i_m_source_file_index>  (158) 
7

>  <i_lp_mmshare_version>  (158) 
48012

>  <i_f3d_flags>  (158) 
0

>  <s_epik_input>  (158) 
bjFbY0hdW2NIXVtuSF1jMVtDSDJdW0NASF0oW0NIMl1bQ0gyXTIpW0NIMl1jKGMyMylbY0hdb24z

>  <s_epik_cmdline>  (158) 
J2VwaWtfcHl0aG9uJywgJy1waHQnLCAnMi4wJywgJy1waCcsICc3LjAnLCAnLXRuJywgJzgnLCAnLW1hJywgJzIwMCcsICctaW1hZScsICc8aW5maWxlLm1hZT4nLCAnLW9tYWUnLCAnPG91dGZpbGUubWFlPic=

>  <r_lp_tautomer_probability>  (158) 
0.5

>  <r_epik_Ionization_Penalty>  (158) 
0.601195

>  <r_epik_Ionization_Penalty_Charging>  (158) 
0.601195

>  <r_epik_Ionization_Penalty_Neutral>  (158) 
2.53733e-08

>  <r_epik_State_Penalty>  (158) 
0.615595

>  <r_epik_Charging_Adjusted_Penalty>  (158) 
1.21679

>  <i_epik_Tot_Q>  (158) 
0

>  <i_epik_Tot_abs_Q>  (158) 
0

>  <s_lp_Force_Field>  (158) 
OPLS3e

>  <r_lp_Energy>  (158) 
9.42438

>  <b_lp_Chiralities_Consistent>  (158) 
1

>  <s_lp_Variant>  (158) 
52:0-2

>  <s_i_glide_gridfile>  (158) 
pfpi4k_grid

>  <i_i_glide_lignum>  (158) 
7

>  <i_i_glide_rotatable_bonds>  (158) 
2

>  <r_i_docking_score>  (158) 
-3.2181

>  <r_i_glide_ligand_efficiency>  (158) 
-0.21454

>  <r_i_glide_ligand_efficiency_sa>  (158) 
-0.5291

>  <r_i_glide_ligand_efficiency_ln>  (158) 
-0.867867

>  <r_i_glide_gscore>  (158) 
-3.2181

>  <r_i_glide_lipo>  (158) 
-0.496527

>  <r_i_glide_hbond>  (158) 
-0.162394

>  <r_i_glide_metal>  (158) 
-0

>  <r_i_glide_rewards>  (158) 
-2.02336

>  <r_i_glide_evdw>  (158) 
-20.4056

>  <r_i_glide_ecoul>  (158) 
-1.85218

>  <r_i_glide_erotb>  (158) 
0.795058

>  <r_i_glide_esite>  (158) 
-0.0327655

>  <r_i_glide_emodel>  (158) 
-27.248

>  <r_i_glide_energy>  (158) 
-22.2578

>  <r_i_glide_einternal>  (158) 
0.167293

>  <r_i_glide_intrahb_reward>  (158) 
-0

>  <i_i_glide_confnum>  (158) 
3

>  <i_i_glide_posenum>  (158) 
2

>  <r_i_glide_eff_state_penalty>  (158) 
0

>  <ligand_id>  (158) 
52

>  <original_smiles>  (158) 
c1c[nH]c(CC2CCc3nocc3C2)n1

>  <smiles>  (158) 
[H]c1nc(C([H])([H])C2([H])C([H])([H])c3c(noc3[H])C([H])([H])C2([H])[H])n([H])c1[H]

$$$$
52:1:2
     RDKit          3D

 28 30  0  0  1  0  0  0  0  0999 V2000
    4.8110   -1.0294    4.3747 C   0  0  0  0  0  0  0  0  0  0  0  0
    3.5013   -0.6168    4.2882 C   0  0  0  0  0  0  0  0  0  0  0  0
    3.3163   -0.2527    2.9632 N   0  0  0  0  0  0  0  0  0  0  0  0
    4.4733   -0.4473    2.3208 C   0  0  0  0  0  0  0  0  0  0  0  0
    4.6645   -0.1183    0.8770 C   0  0  0  0  0  0  0  0  0  0  0  0
    4.5751   -1.3366   -0.0760 C   0  0  2  0  0  0  0  0  0  0  0  0
    5.9544   -2.0248   -0.2646 C   0  0  0  0  0  0  0  0  0  0  0  0
    5.9337   -3.2789   -1.1700 C   0  0  0  0  0  0  0  0  0  0  0  0
    5.0480   -3.0502   -2.3598 C   0  0  0  0  0  0  0  0  0  0  0  0
    5.0210   -3.8493   -3.4103 N   0  0  0  0  0  0  0  0  0  0  0  0
    4.0505   -3.3151   -4.2664 O   0  0  0  0  0  0  0  0  0  0  0  0
    3.5294   -2.2074   -3.6839 C   0  0  0  0  0  0  0  0  0  0  0  0
    4.1309   -1.9845   -2.4772 C   0  0  0  0  0  0  0  0  0  0  0  0
    3.9476   -0.9258   -1.4364 C   0  0  0  0  0  0  0  0  0  0  0  0
    5.4187   -0.9207    3.1268 N   0  0  0  0  0  0  0  0  0  0  0  0
    2.4650    0.1092    2.5544 H   0  0  0  0  0  0  0  0  0  0  0  0
    5.3592   -1.3896    5.2354 H   0  0  0  0  0  0  0  0  0  0  0  0
    2.7244   -0.5527    5.0345 H   0  0  0  0  0  0  0  0  0  0  0  0
    3.9176    0.6294    0.6050 H   0  0  0  0  0  0  0  0  0  0  0  0
    5.6310    0.3752    0.7588 H   0  0  0  0  0  0  0  0  0  0  0  0
    3.9044   -2.0810    0.3579 H   0  0  0  0  0  0  0  0  0  0  0  0
    6.6217   -1.2919   -0.7084 H   0  0  0  0  0  0  0  0  0  0  0  0
    6.3926   -2.2842    0.6981 H   0  0  0  0  0  0  0  0  0  0  0  0
    6.9477   -3.5458   -1.4753 H   0  0  0  0  0  0  0  0  0  0  0  0
    5.5362   -4.1168   -0.5992 H   0  0  0  0  0  0  0  0  0  0  0  0
    2.7592   -1.6960   -4.2446 H   0  0  0  0  0  0  0  0  0  0  0  0
    2.8953   -0.6918   -1.3010 H   0  0  0  0  0  0  0  0  0  0  0  0
    4.4202   -0.0098   -1.7860 H   0  0  0  0  0  0  0  0  0  0  0  0
  1 15  1  0
  1  2  2  0
  1 17  1  0
  2  3  1  0
  2 18  1  0
  3 16  1  0
  3  4  1  0
  4  5  1  0
  4 15  2  0
  5  6  1  0
  5 19  1  0
  5 20  1  0
  6 14  1  0
  6  7  1  0
  6 21  1  1
  7  8  1  0
  7 22  1  0
  7 23  1  0
  8  9  1  0
  8 24  1  0
  8 25  1  0
  9 13  1  0
  9 10  2  0
 10 11  1  0
 11 12  1  0
 12 13  2  0
 12 26  1  0
 13 14  1  0
 14 27  1  0
 14 28  1  0
M  END
>  <i_m_ct_stereo_status>  (159) 
1

>  <s_m_source_file>  (159) 
/var/tmp/pbs.5076255.sched01/tmp2djcgp0g/84b3bpyveh.sdf

>  <i_m_source_file_index>  (159) 
7

>  <i_lp_mmshare_version>  (159) 
48012

>  <i_f3d_flags>  (159) 
0

>  <s_epik_input>  (159) 
bjFbY0hdW2NIXVtuSF1jMVtDSDJdW0NASF0oW0NIMl1bQ0gyXTIpW0NIMl1jKGMyMylbY0hdb24z

>  <s_epik_cmdline>  (159) 
J2VwaWtfcHl0aG9uJywgJy1waHQnLCAnMi4wJywgJy1waCcsICc3LjAnLCAnLXRuJywgJzgnLCAnLW1hJywgJzIwMCcsICctaW1hZScsICc8aW5maWxlLm1hZT4nLCAnLW9tYWUnLCAnPG91dGZpbGUubWFlPic=

>  <r_lp_tautomer_probability>  (159) 
0.5

>  <r_epik_Ionization_Penalty>  (159) 
0.601195

>  <r_epik_Ionization_Penalty_Charging>  (159) 
0.601195

>  <r_epik_Ionization_Penalty_Neutral>  (159) 
2.53733e-08

>  <r_epik_State_Penalty>  (159) 
0.615595

>  <r_epik_Charging_Adjusted_Penalty>  (159) 
1.21679

>  <i_epik_Tot_Q>  (159) 
0

>  <i_epik_Tot_abs_Q>  (159) 
0

>  <s_lp_Force_Field>  (159) 
OPLS3e

>  <r_lp_Energy>  (159) 
9.42438

>  <b_lp_Chiralities_Consistent>  (159) 
1

>  <s_lp_Variant>  (159) 
52:0-2

>  <s_i_glide_gridfile>  (159) 
pfpi4k_grid

>  <i_i_glide_lignum>  (159) 
7

>  <i_i_glide_rotatable_bonds>  (159) 
2

>  <r_i_docking_score>  (159) 
-3.12654

>  <r_i_glide_ligand_efficiency>  (159) 
-0.208436

>  <r_i_glide_ligand_efficiency_sa>  (159) 
-0.514047

>  <r_i_glide_ligand_efficiency_ln>  (159) 
-0.843175

>  <r_i_glide_gscore>  (159) 
-3.12654

>  <r_i_glide_lipo>  (159) 
-0.622133

>  <r_i_glide_hbond>  (159) 
0

>  <r_i_glide_metal>  (159) 
-0

>  <r_i_glide_rewards>  (159) 
-2.1435

>  <r_i_glide_evdw>  (159) 
-19.6278

>  <r_i_glide_ecoul>  (159) 
-0.962307

>  <r_i_glide_erotb>  (159) 
0.795058

>  <r_i_glide_esite>  (159) 
-0.0302314

>  <r_i_glide_emodel>  (159) 
-24.8904

>  <r_i_glide_energy>  (159) 
-20.5901

>  <r_i_glide_einternal>  (159) 
1.23218

>  <r_i_glide_intrahb_reward>  (159) 
-0

>  <i_i_glide_confnum>  (159) 
3

>  <i_i_glide_posenum>  (159) 
27

>  <r_i_glide_eff_state_penalty>  (159) 
0

>  <ligand_id>  (159) 
52

>  <original_smiles>  (159) 
c1c[nH]c(CC2CCc3nocc3C2)n1

>  <smiles>  (159) 
[H]c1nc(C([H])([H])C2([H])C([H])([H])c3c(noc3[H])C([H])([H])C2([H])[H])n([H])c1[H]

$$$$
53:0:0
     RDKit          3D

 63 68  0  0  1  0  0  0  0  0999 V2000
    0.8618   -2.7388    3.6284 C   0  0  0  0  0  0  0  0  0  0  0  0
    1.9482   -3.1331    2.7981 O   0  0  0  0  0  0  0  0  0  0  0  0
    3.1654   -2.5416    3.1414 C   0  0  2  0  0  0  0  0  0  0  0  0
    3.9493   -2.1856    2.0300 O   0  0  0  0  0  0  0  0  0  0  0  0
    3.8651   -2.9396    0.8890 C   0  0  0  0  0  0  0  0  0  0  0  0
    3.9506   -4.2748    1.0169 C   0  0  0  0  0  0  0  0  0  0  0  0
    3.6228   -5.2991   -0.0272 C   0  0  0  0  0  0  0  0  0  0  0  0
    5.0450   -4.6570    1.9185 C   0  0  1  0  0  0  0  0  0  0  0  0
    6.0209   -5.5656    1.3521 O   0  0  0  0  0  0  0  0  0  0  0  0
    6.4314   -4.2040    1.5396 C   0  0  1  0  0  0  0  0  0  0  0  0
    6.9550   -3.4100    0.3456 C   0  0  2  0  0  0  0  0  0  0  0  0
    6.9468   -1.8755    0.4964 C   0  0  0  0  0  0  0  0  0  0  0  0
    5.6356   -1.2158   -0.0154 C   0  0  1  0  0  0  0  0  0  0  0  0
    5.2882   -0.0318    0.8934 C   0  0  0  0  0  0  0  0  0  0  0  0
    5.8171   -0.6776   -1.3007 O   0  0  0  0  0  0  0  0  0  0  0  0
    4.5803   -0.5504   -1.9927 C   0  0  0  0  0  0  0  0  0  0  0  0
    3.5942   -1.4507   -1.2101 C   0  0  1  0  0  0  0  0  0  0  0  0
    2.6760   -2.2688   -2.1443 C   0  0  0  0  0  0  0  0  0  0  0  0
    4.5119   -2.2408   -0.3215 C   0  0  2  0  0  0  0  0  0  0  0  0
    5.0876   -3.1616   -1.2516 O   0  0  0  0  0  0  0  0  0  0  0  0
    6.3313   -3.7746   -0.9784 C   0  0  1  0  0  0  0  0  0  0  0  0
    7.2335   -3.4463   -2.1756 C   0  0  0  0  0  0  0  0  0  0  0  0
    4.7694   -4.6471    3.3982 C   0  0  2  0  0  0  0  0  0  0  0  0
    3.7928   -5.5875    4.0723 C   0  0  0  0  0  0  0  0  0  0  0  0
    2.7941   -6.3437    3.2081 C   0  0  0  0  0  0  0  0  0  0  0  0
    4.3138   -6.5026    5.1751 C   0  0  0  0  0  0  0  0  0  0  0  0
    3.1269   -4.4648    4.7106 O   0  0  0  0  0  0  0  0  0  0  0  0
    3.9881   -3.5012    4.0367 C   0  0  2  0  0  0  0  0  0  0  0  0
    4.6649   -2.6381    5.0985 C   0  0  0  0  0  0  0  0  0  0  0  0
   -0.0403   -3.2462    3.3270 H   0  0  0  0  0  0  0  0  0  0  0  0
    0.6472   -1.6743    3.5335 H   0  0  0  0  0  0  0  0  0  0  0  0
    1.0184   -3.0043    4.6739 H   0  0  0  0  0  0  0  0  0  0  0  0
    2.9590   -1.5863    3.6212 H   0  0  0  0  0  0  0  0  0  0  0  0
    2.7487   -5.8602    0.2934 H   0  0  0  0  0  0  0  0  0  0  0  0
    4.4124   -6.0194   -0.2730 H   0  0  0  0  0  0  0  0  0  0  0  0
    3.3564   -4.7261   -0.9044 H   0  0  0  0  0  0  0  0  0  0  0  0
    7.0841   -4.1705    2.3708 H   0  0  0  0  0  0  0  0  0  0  0  0
    7.9978   -3.7195    0.2992 H   0  0  0  0  0  0  0  0  0  0  0  0
    7.0772   -1.6135    1.5467 H   0  0  0  0  0  0  0  0  0  0  0  0
    7.7932   -1.4839   -0.0727 H   0  0  0  0  0  0  0  0  0  0  0  0
    5.3203   -0.2798    1.9570 H   0  0  0  0  0  0  0  0  0  0  0  0
    4.3180    0.4153    0.6755 H   0  0  0  0  0  0  0  0  0  0  0  0
    6.0479    0.7111    0.7101 H   0  0  0  0  0  0  0  0  0  0  0  0
    4.2076    0.4577   -2.0438 H   0  0  0  0  0  0  0  0  0  0  0  0
    4.6585   -0.8527   -3.0485 H   0  0  0  0  0  0  0  0  0  0  0  0
    3.0037   -0.8026   -0.5513 H   0  0  0  0  0  0  0  0  0  0  0  0
    3.2118   -2.8978   -2.8557 H   0  0  0  0  0  0  0  0  0  0  0  0
    2.1014   -1.5787   -2.7417 H   0  0  0  0  0  0  0  0  0  0  0  0
    1.9938   -2.8746   -1.5657 H   0  0  0  0  0  0  0  0  0  0  0  0
    6.0960   -4.8238   -0.8852 H   0  0  0  0  0  0  0  0  0  0  0  0
    8.2051   -3.9656   -2.1162 H   0  0  0  0  0  0  0  0  0  0  0  0
    7.4778   -2.4058   -2.3233 H   0  0  0  0  0  0  0  0  0  0  0  0
    6.7116   -3.7952   -3.0652 H   0  0  0  0  0  0  0  0  0  0  0  0
    5.6884   -4.6705    3.9905 H   0  0  0  0  0  0  0  0  0  0  0  0
    3.3213   -7.0566    2.5796 H   0  0  0  0  0  0  0  0  0  0  0  0
    2.2464   -5.6658    2.5614 H   0  0  0  0  0  0  0  0  0  0  0  0
    2.0703   -6.8849    3.8125 H   0  0  0  0  0  0  0  0  0  0  0  0
    4.9012   -7.3161    4.7587 H   0  0  0  0  0  0  0  0  0  0  0  0
    3.4958   -6.9407    5.7426 H   0  0  0  0  0  0  0  0  0  0  0  0
    4.9466   -5.9682    5.8829 H   0  0  0  0  0  0  0  0  0  0  0  0
    5.3881   -1.9581    4.6521 H   0  0  0  0  0  0  0  0  0  0  0  0
    5.1898   -3.2421    5.8394 H   0  0  0  0  0  0  0  0  0  0  0  0
    3.9339   -2.0396    5.6375 H   0  0  0  0  0  0  0  0  0  0  0  0
  1  2  1  0
  1 30  1  0
  1 31  1  0
  1 32  1  0
  2  3  1  0
  3 28  1  0
  3  4  1  0
  3 33  1  1
  4  5  1  0
  5 19  1  0
  5  6  2  0
  6  7  1  0
  6  8  1  0
  7 34  1  0
  7 35  1  0
  7 36  1  0
  8 10  1  0
  8  9  1  6
  8 23  1  0
  9 10  1  0
 10 11  1  0
 10 37  1  1
 11 21  1  0
 11 12  1  0
 11 38  1  6
 12 13  1  0
 12 39  1  0
 12 40  1  0
 13 19  1  0
 13 14  1  1
 13 15  1  0
 14 41  1  0
 14 42  1  0
 14 43  1  0
 15 16  1  0
 16 17  1  0
 16 44  1  0
 16 45  1  0
 17 18  1  0
 17 19  1  0
 17 46  1  1
 18 47  1  0
 18 48  1  0
 18 49  1  0
 19 20  1  6
 20 21  1  0
 21 22  1  0
 21 50  1  1
 22 51  1  0
 22 52  1  0
 22 53  1  0
 23 28  1  0
 23 24  1  0
 23 54  1  1
 24 25  1  0
 24 26  1  0
 24 27  1  0
 25 55  1  0
 25 56  1  0
 25 57  1  0
 26 58  1  0
 26 59  1  0
 26 60  1  0
 27 28  1  0
 28 29  1  1
 29 61  1  0
 29 62  1  0
 29 63  1  0
M  END
>  <i_m_ct_stereo_status>  (160) 
1

>  <s_m_source_file>  (160) 
/var/tmp/pbs.5076255.sched01/tmp2djcgp0g/84b3bpyveh.sdf

>  <i_m_source_file_index>  (160) 
8

>  <i_lp_mmshare_version>  (160) 
48012

>  <i_f3d_flags>  (160) 
0

>  <s_epik_input>  (160) 
W0NIM11DKE8xKShbQ0gzXSlbQ0BASF0yW0NAQF0xKFtDSDNdKVtDQEhdKE9bQ0gzXSlPQyg9QzNbQ0gzXSlbQ0BdKFtDQEBIXShbQ0gyXU80KVtDSDNdKShPW0NASF01W0NIM10pW0NAQF00KFtDSDNdKVtDSDJdW0NASF01W0NAQEhdKFtDQEBdMjM2KU82

>  <s_epik_cmdline>  (160) 
J2VwaWtfcHl0aG9uJywgJy1waHQnLCAnMi4wJywgJy1waCcsICc3LjAnLCAnLXRuJywgJzgnLCAnLW1hJywgJzIwMCcsICctaW1hZScsICc8aW5maWxlLm1hZT4nLCAnLW9tYWUnLCAnPG91dGZpbGUubWFlPic=

>  <r_lp_tautomer_probability>  (160) 
1

>  <r_epik_Ionization_Penalty>  (160) 
5.51755e-13

>  <r_epik_Ionization_Penalty_Charging>  (160) 
0

>  <r_epik_Ionization_Penalty_Neutral>  (160) 
5.51755e-13

>  <r_epik_State_Penalty>  (160) 
-0

>  <r_epik_Charging_Adjusted_Penalty>  (160) 
0

>  <i_epik_Tot_Q>  (160) 
0

>  <i_epik_Tot_abs_Q>  (160) 
0

>  <s_epik_Chemistry_Notes>  (160) 
This compound contains an acetal/aminal-like group ( X-CH(R)-Y where X, Y are N, S, or O) that may be acid/base labile, releasing an aldehyde.

>  <s_lp_Force_Field>  (160) 
OPLS3e

>  <r_lp_Energy>  (160) 
83.5071

>  <b_lp_Chiralities_Consistent>  (160) 
1

>  <s_lp_Variant>  (160) 
53:0-1

>  <s_i_glide_gridfile>  (160) 
pfpi4k_grid

>  <i_i_glide_lignum>  (160) 
8

>  <i_i_glide_rotatable_bonds>  (160) 
1

>  <r_i_docking_score>  (160) 
-1.77802

>  <r_i_glide_ligand_efficiency>  (160) 
-0.0613109

>  <r_i_glide_ligand_efficiency_sa>  (160) 
-0.188366

>  <r_i_glide_ligand_efficiency_ln>  (160) 
-0.40712

>  <r_i_glide_gscore>  (160) 
-1.77802

>  <r_i_glide_lipo>  (160) 
-0.499602

>  <r_i_glide_hbond>  (160) 
-0.0352085

>  <r_i_glide_metal>  (160) 
-0

>  <r_i_glide_rewards>  (160) 
-0.637424

>  <r_i_glide_evdw>  (160) 
-9.86704

>  <r_i_glide_ecoul>  (160) 
-0.749528

>  <r_i_glide_erotb>  (160) 
0

>  <r_i_glide_esite>  (160) 
0

>  <r_i_glide_emodel>  (160) 
-9.29746

>  <r_i_glide_energy>  (160) 
-10.6166

>  <r_i_glide_einternal>  (160) 
3.13502

>  <r_i_glide_intrahb_reward>  (160) 
-0

>  <i_i_glide_confnum>  (160) 
1

>  <i_i_glide_posenum>  (160) 
1

>  <r_i_glide_eff_state_penalty>  (160) 
0

>  <ligand_id>  (160) 
53

>  <original_smiles>  (160) 
COC1OC2=C(C)C3(OC3C3CC4(C)OCC(C)C24OC3C)C2C(C)(C)OC12C

>  <smiles>  (160) 
[H]C([H])([H])OC1([H])OC2=C(C([H])([H])[H])C3(OC3([H])C3([H])C([H])([H])C4(C([H])([H])[H])OC([H])([H])C([H])(C([H])([H])[H])C24OC3([H])C([H])([H])[H])C2([H])C(C([H])([H])[H])(C([H])([H])[H])OC12C([H])([H])[H]

$$$$
55:0:0
     RDKit          3D

 20 22  0  0  1  0  0  0  0  0999 V2000
    7.4403   -1.4702    0.4701 N   0  0  0  0  0  0  0  0  0  0  0  0
    6.3176   -1.4539    0.7420 C   0  0  0  0  0  0  0  0  0  0  0  0
    4.8741   -1.4161    1.0485 C   0  0  2  0  0  0  0  0  0  0  0  0
    4.5189   -2.2907    2.2598 C   0  0  0  0  0  0  0  0  0  0  0  0
    5.0138   -2.0925    3.3681 O   0  0  0  0  0  0  0  0  0  0  0  0
    3.6132   -3.2833    1.8998 N   0  0  0  0  0  0  0  0  0  0  0  0
    3.4232   -3.0957    0.6399 C   0  0  0  0  0  0  0  0  0  0  0  0
    2.4512   -3.8573   -0.6880 S   0  0  0  0  0  0  0  0  0  0  0  0
    3.0342   -2.7031   -1.8764 C   0  0  0  0  0  0  0  0  0  0  0  0
    2.6774   -2.6541   -3.2333 C   0  0  0  0  0  0  0  0  0  0  0  0
    3.2656   -1.6339   -4.0183 C   0  0  0  0  0  0  0  0  0  0  0  0
    4.1723   -0.7102   -3.4516 C   0  0  0  0  0  0  0  0  0  0  0  0
    4.5221   -0.7834   -2.0870 C   0  0  0  0  0  0  0  0  0  0  0  0
    3.9277   -1.7912   -1.3112 C   0  0  0  0  0  0  0  0  0  0  0  0
    4.0899   -2.0688    0.0428 N   0  0  0  0  0  0  0  0  0  0  0  0
    4.5469   -0.3890    1.2028 H   0  0  0  0  0  0  0  0  0  0  0  0
    1.9730   -3.3638   -3.6470 H   0  0  0  0  0  0  0  0  0  0  0  0
    3.0146   -1.5441   -5.0636 H   0  0  0  0  0  0  0  0  0  0  0  0
    4.5894    0.0593   -4.0806 H   0  0  0  0  0  0  0  0  0  0  0  0
    5.2146   -0.0815   -1.6514 H   0  0  0  0  0  0  0  0  0  0  0  0
  1  2  3  0
  2  3  1  0
  3 15  1  0
  3  4  1  0
  3 16  1  1
  4  5  2  0
  4  6  1  0
  6  7  2  0
  7 15  1  0
  7  8  1  0
  8  9  1  0
  9 14  2  0
  9 10  1  0
 10 11  2  0
 10 17  1  0
 11 12  1  0
 11 18  1  0
 12 13  2  0
 12 19  1  0
 13 14  1  0
 13 20  1  0
 14 15  1  0
M  END
>  <i_m_ct_stereo_status>  (161) 
1

>  <s_m_source_file>  (161) 
/var/tmp/pbs.5076255.sched01/tmp2djcgp0g/84b3bpyveh.sdf

>  <i_m_source_file_index>  (161) 
10

>  <i_lp_mmshare_version>  (161) 
48012

>  <i_f3d_flags>  (161) 
0

>  <s_epik_input>  (161) 
TiNDW0NASF0oQyg9TylOPTEpTihDMTIpYzNjKFMyKVtjSF1bY0hdW2NIXVtjSF0z

>  <s_epik_cmdline>  (161) 
J2VwaWtfcHl0aG9uJywgJy1waHQnLCAnMi4wJywgJy1waCcsICc3LjAnLCAnLXRuJywgJzgnLCAnLW1hJywgJzIwMCcsICctaW1hZScsICc8aW5maWxlLm1hZT4nLCAnLW9tYWUnLCAnPG91dGZpbGUubWFlPic=

>  <r_lp_tautomer_probability>  (161) 
1

>  <r_epik_Ionization_Penalty>  (161) 
0.000240483

>  <r_epik_Ionization_Penalty_Charging>  (161) 
1.2937e-10

>  <r_epik_Ionization_Penalty_Neutral>  (161) 
0.000240483

>  <r_epik_State_Penalty>  (161) 
-0

>  <r_epik_Charging_Adjusted_Penalty>  (161) 
1.2937e-10

>  <i_epik_Tot_Q>  (161) 
0

>  <i_epik_Tot_abs_Q>  (161) 
0

>  <s_lp_Force_Field>  (161) 
OPLS3e

>  <r_lp_Energy>  (161) 
11.5915

>  <b_lp_Chiralities_Consistent>  (161) 
1

>  <s_lp_Variant>  (161) 
55:0-1

>  <s_i_glide_gridfile>  (161) 
pfpi4k_grid

>  <i_i_glide_lignum>  (161) 
10

>  <i_i_glide_rotatable_bonds>  (161) 
1

>  <r_i_docking_score>  (161) 
-3.84612

>  <r_i_glide_ligand_efficiency>  (161) 
-0.256408

>  <r_i_glide_ligand_efficiency_sa>  (161) 
-0.632357

>  <r_i_glide_ligand_efficiency_ln>  (161) 
-1.03724

>  <r_i_glide_gscore>  (161) 
-3.84612

>  <r_i_glide_lipo>  (161) 
-0.440847

>  <r_i_glide_hbond>  (161) 
-0.0233266

>  <r_i_glide_metal>  (161) 
-0

>  <r_i_glide_rewards>  (161) 
-2.10248

>  <r_i_glide_evdw>  (161) 
-19.6043

>  <r_i_glide_ecoul>  (161) 
-1.78816

>  <r_i_glide_erotb>  (161) 
0

>  <r_i_glide_esite>  (161) 
-0.0310296

>  <r_i_glide_emodel>  (161) 
-27.9513

>  <r_i_glide_energy>  (161) 
-21.3924

>  <r_i_glide_einternal>  (161) 
-0.319008

>  <r_i_glide_intrahb_reward>  (161) 
-0

>  <i_i_glide_confnum>  (161) 
1

>  <i_i_glide_posenum>  (161) 
13

>  <r_i_glide_eff_state_penalty>  (161) 
0

>  <ligand_id>  (161) 
55

>  <original_smiles>  (161) 
N#CC1C(=O)N=C2Sc3ccccc3N21

>  <smiles>  (161) 
[H]c1c([H])c([H])c2c(c1[H])SC1=NC(=O)C([H])(C#N)N12

$$$$
55:0:1
     RDKit          3D

 20 22  0  0  1  0  0  0  0  0999 V2000
    2.0180    3.6992    3.4819 N   0  0  0  0  0  0  0  0  0  0  0  0
    0.9896    3.2052    3.2872 C   0  0  0  0  0  0  0  0  0  0  0  0
   -0.3175    2.5432    3.0689 C   0  0  2  0  0  0  0  0  0  0  0  0
   -1.4641    3.2284    3.8290 C   0  0  0  0  0  0  0  0  0  0  0  0
   -1.7691    4.4050    3.6362 O   0  0  0  0  0  0  0  0  0  0  0  0
   -2.0582    2.3484    4.7250 N   0  0  0  0  0  0  0  0  0  0  0  0
   -1.3981    1.2527    4.5741 C   0  0  0  0  0  0  0  0  0  0  0  0
   -1.4363   -0.4265    5.2741 S   0  0  0  0  0  0  0  0  0  0  0  0
   -0.0776   -0.9322    4.2709 C   0  0  0  0  0  0  0  0  0  0  0  0
    0.5140   -2.2075    4.2509 C   0  0  0  0  0  0  0  0  0  0  0  0
    1.5928   -2.4216    3.3635 C   0  0  0  0  0  0  0  0  0  0  0  0
    2.0547   -1.3762    2.5237 C   0  0  0  0  0  0  0  0  0  0  0  0
    1.4498   -0.0991    2.5530 C   0  0  0  0  0  0  0  0  0  0  0  0
    0.3793    0.0982    3.4425 C   0  0  0  0  0  0  0  0  0  0  0  0
   -0.3803    1.2428    3.6716 N   0  0  0  0  0  0  0  0  0  0  0  0
   -0.5394    2.4914    2.0040 H   0  0  0  0  0  0  0  0  0  0  0  0
    0.1488   -2.9997    4.8880 H   0  0  0  0  0  0  0  0  0  0  0  0
    2.0670   -3.3924    3.3231 H   0  0  0  0  0  0  0  0  0  0  0  0
    2.8799   -1.5587    1.8502 H   0  0  0  0  0  0  0  0  0  0  0  0
    1.8007    0.6963    1.9098 H   0  0  0  0  0  0  0  0  0  0  0  0
  1  2  3  0
  2  3  1  0
  3 15  1  0
  3  4  1  0
  3 16  1  6
  4  5  2  0
  4  6  1  0
  6  7  2  0
  7 15  1  0
  7  8  1  0
  8  9  1  0
  9 14  2  0
  9 10  1  0
 10 11  2  0
 10 17  1  0
 11 12  1  0
 11 18  1  0
 12 13  2  0
 12 19  1  0
 13 14  1  0
 13 20  1  0
 14 15  1  0
M  END
>  <i_m_ct_stereo_status>  (162) 
1

>  <s_m_source_file>  (162) 
/var/tmp/pbs.5076255.sched01/tmp2djcgp0g/84b3bpyveh.sdf

>  <i_m_source_file_index>  (162) 
10

>  <i_lp_mmshare_version>  (162) 
48012

>  <i_f3d_flags>  (162) 
0

>  <s_epik_input>  (162) 
TiNDW0NASF0oQyg9TylOPTEpTihDMTIpYzNjKFMyKVtjSF1bY0hdW2NIXVtjSF0z

>  <s_epik_cmdline>  (162) 
J2VwaWtfcHl0aG9uJywgJy1waHQnLCAnMi4wJywgJy1waCcsICc3LjAnLCAnLXRuJywgJzgnLCAnLW1hJywgJzIwMCcsICctaW1hZScsICc8aW5maWxlLm1hZT4nLCAnLW9tYWUnLCAnPG91dGZpbGUubWFlPic=

>  <r_lp_tautomer_probability>  (162) 
1

>  <r_epik_Ionization_Penalty>  (162) 
0.000240483

>  <r_epik_Ionization_Penalty_Charging>  (162) 
1.2937e-10

>  <r_epik_Ionization_Penalty_Neutral>  (162) 
0.000240483

>  <r_epik_State_Penalty>  (162) 
-0

>  <r_epik_Charging_Adjusted_Penalty>  (162) 
1.2937e-10

>  <i_epik_Tot_Q>  (162) 
0

>  <i_epik_Tot_abs_Q>  (162) 
0

>  <s_lp_Force_Field>  (162) 
OPLS3e

>  <r_lp_Energy>  (162) 
11.5915

>  <b_lp_Chiralities_Consistent>  (162) 
1

>  <s_lp_Variant>  (162) 
55:0-1

>  <s_i_glide_gridfile>  (162) 
pfpi4k_grid

>  <i_i_glide_lignum>  (162) 
10

>  <i_i_glide_rotatable_bonds>  (162) 
1

>  <r_i_docking_score>  (162) 
-3.7741

>  <r_i_glide_ligand_efficiency>  (162) 
-0.251607

>  <r_i_glide_ligand_efficiency_sa>  (162) 
-0.620516

>  <r_i_glide_ligand_efficiency_ln>  (162) 
-1.01781

>  <r_i_glide_gscore>  (162) 
-3.7741

>  <r_i_glide_lipo>  (162) 
-0.0771232

>  <r_i_glide_hbond>  (162) 
-0.151772

>  <r_i_glide_metal>  (162) 
-0

>  <r_i_glide_rewards>  (162) 
-1.9416

>  <r_i_glide_evdw>  (162) 
-19.0788

>  <r_i_glide_ecoul>  (162) 
-3.09671

>  <r_i_glide_erotb>  (162) 
0

>  <r_i_glide_esite>  (162) 
-0.185162

>  <r_i_glide_emodel>  (162) 
-28.6215

>  <r_i_glide_energy>  (162) 
-22.1755

>  <r_i_glide_einternal>  (162) 
-0.326498

>  <r_i_glide_intrahb_reward>  (162) 
-0

>  <i_i_glide_confnum>  (162) 
2

>  <i_i_glide_posenum>  (162) 
26

>  <r_i_glide_eff_state_penalty>  (162) 
0

>  <ligand_id>  (162) 
55

>  <original_smiles>  (162) 
N#CC1C(=O)N=C2Sc3ccccc3N21

>  <smiles>  (162) 
[H]c1c([H])c([H])c2c(c1[H])SC1=NC(=O)C([H])(C#N)N12

$$$$
55:0:2
     RDKit          3D

 20 22  0  0  1  0  0  0  0  0999 V2000
    4.6188   -6.1455    3.3608 N   0  0  0  0  0  0  0  0  0  0  0  0
    3.8681   -6.6229    2.6224 C   0  0  0  0  0  0  0  0  0  0  0  0
    2.9237   -7.2455    1.6682 C   0  0  2  0  0  0  0  0  0  0  0  0
    1.9099   -6.2416    1.1002 C   0  0  0  0  0  0  0  0  0  0  0  0
    2.2626   -5.2461    0.4720 O   0  0  0  0  0  0  0  0  0  0  0  0
    0.6047   -6.6200    1.4008 N   0  0  0  0  0  0  0  0  0  0  0  0
    0.7481   -7.7051    2.0783 C   0  0  0  0  0  0  0  0  0  0  0  0
   -0.3366   -8.9137    2.8912 S   0  0  0  0  0  0  0  0  0  0  0  0
    1.0446   -9.8809    3.4133 C   0  0  0  0  0  0  0  0  0  0  0  0
    0.9993  -11.0671    4.1594 C   0  0  0  0  0  0  0  0  0  0  0  0
    2.2206  -11.6968    4.4803 C   0  0  0  0  0  0  0  0  0  0  0  0
    3.4529  -11.1417    4.0603 C   0  0  0  0  0  0  0  0  0  0  0  0
    3.4881   -9.9443    3.3114 C   0  0  0  0  0  0  0  0  0  0  0  0
    2.2620   -9.3292    3.0011 C   0  0  0  0  0  0  0  0  0  0  0  0
    2.0153   -8.1535    2.2983 N   0  0  0  0  0  0  0  0  0  0  0  0
    3.4747   -7.7350    0.8670 H   0  0  0  0  0  0  0  0  0  0  0  0
    0.0562  -11.4824    4.4847 H   0  0  0  0  0  0  0  0  0  0  0  0
    2.2119  -12.6096    5.0606 H   0  0  0  0  0  0  0  0  0  0  0  0
    4.3741  -11.6430    4.3211 H   0  0  0  0  0  0  0  0  0  0  0  0
    4.4302   -9.5205    2.9932 H   0  0  0  0  0  0  0  0  0  0  0  0
  1  2  3  0
  2  3  1  0
  3 15  1  0
  3  4  1  0
  3 16  1  6
  4  5  2  0
  4  6  1  0
  6  7  2  0
  7 15  1  0
  7  8  1  0
  8  9  1  0
  9 14  2  0
  9 10  1  0
 10 11  2  0
 10 17  1  0
 11 12  1  0
 11 18  1  0
 12 13  2  0
 12 19  1  0
 13 14  1  0
 13 20  1  0
 14 15  1  0
M  END
>  <i_m_ct_stereo_status>  (163) 
1

>  <s_m_source_file>  (163) 
/var/tmp/pbs.5076255.sched01/tmp2djcgp0g/84b3bpyveh.sdf

>  <i_m_source_file_index>  (163) 
10

>  <i_lp_mmshare_version>  (163) 
48012

>  <i_f3d_flags>  (163) 
0

>  <s_epik_input>  (163) 
TiNDW0NASF0oQyg9TylOPTEpTihDMTIpYzNjKFMyKVtjSF1bY0hdW2NIXVtjSF0z

>  <s_epik_cmdline>  (163) 
J2VwaWtfcHl0aG9uJywgJy1waHQnLCAnMi4wJywgJy1waCcsICc3LjAnLCAnLXRuJywgJzgnLCAnLW1hJywgJzIwMCcsICctaW1hZScsICc8aW5maWxlLm1hZT4nLCAnLW9tYWUnLCAnPG91dGZpbGUubWFlPic=

>  <r_lp_tautomer_probability>  (163) 
1

>  <r_epik_Ionization_Penalty>  (163) 
0.000240483

>  <r_epik_Ionization_Penalty_Charging>  (163) 
1.2937e-10

>  <r_epik_Ionization_Penalty_Neutral>  (163) 
0.000240483

>  <r_epik_State_Penalty>  (163) 
-0

>  <r_epik_Charging_Adjusted_Penalty>  (163) 
1.2937e-10

>  <i_epik_Tot_Q>  (163) 
0

>  <i_epik_Tot_abs_Q>  (163) 
0

>  <s_lp_Force_Field>  (163) 
OPLS3e

>  <r_lp_Energy>  (163) 
11.5915

>  <b_lp_Chiralities_Consistent>  (163) 
1

>  <s_lp_Variant>  (163) 
55:0-1

>  <s_i_glide_gridfile>  (163) 
pfpi4k_grid

>  <i_i_glide_lignum>  (163) 
10

>  <i_i_glide_rotatable_bonds>  (163) 
1

>  <r_i_docking_score>  (163) 
-3.62502

>  <r_i_glide_ligand_efficiency>  (163) 
-0.241668

>  <r_i_glide_ligand_efficiency_sa>  (163) 
-0.596004

>  <r_i_glide_ligand_efficiency_ln>  (163) 
-0.977607

>  <r_i_glide_gscore>  (163) 
-3.62502

>  <r_i_glide_lipo>  (163) 
-0.142757

>  <r_i_glide_hbond>  (163) 
-0.102187

>  <r_i_glide_metal>  (163) 
-0

>  <r_i_glide_rewards>  (163) 
-1.9416

>  <r_i_glide_evdw>  (163) 
-20.6382

>  <r_i_glide_ecoul>  (163) 
-2.01066

>  <r_i_glide_erotb>  (163) 
0

>  <r_i_glide_esite>  (163) 
-0.104965

>  <r_i_glide_emodel>  (163) 
-28.8443

>  <r_i_glide_energy>  (163) 
-22.6488

>  <r_i_glide_einternal>  (163) 
-0.319475

>  <r_i_glide_intrahb_reward>  (163) 
-0

>  <i_i_glide_confnum>  (163) 
1

>  <i_i_glide_posenum>  (163) 
11

>  <r_i_glide_eff_state_penalty>  (163) 
0

>  <ligand_id>  (163) 
55

>  <original_smiles>  (163) 
N#CC1C(=O)N=C2Sc3ccccc3N21

>  <smiles>  (163) 
[H]c1c([H])c([H])c2c(c1[H])SC1=NC(=O)C([H])(C#N)N12

$$$$
56:0:0
     RDKit          3D

 25 26  0  0  1  0  0  0  0  0999 V2000
    2.4469   -3.2083    1.4329 C   0  0  0  0  0  0  0  0  0  0  0  0
    3.2803   -3.2244    0.2459 N   0  0  0  0  0  0  0  0  0  0  0  0
    4.1640   -4.1769   -0.0896 C   0  0  0  0  0  0  0  0  0  0  0  0
    4.3046   -5.2078    0.5666 O   0  0  0  0  0  0  0  0  0  0  0  0
    5.0522   -3.9297   -1.3309 C   0  0  0  0  0  0  0  0  0  0  0  0
    4.7543   -2.6794   -2.0629 N   0  0  0  0  0  0  0  0  0  0  0  0
    5.0430   -1.4681   -1.5428 C   0  0  0  0  0  0  0  0  0  0  0  0
    5.7194   -1.2456   -0.5342 O   0  0  0  0  0  0  0  0  0  0  0  0
    4.4509   -0.5575   -2.2821 N   0  0  0  0  0  0  0  0  0  0  0  0
    3.8790   -1.1079   -3.4362 C   0  0  0  0  0  0  0  0  0  0  0  0
    2.6974   -0.4864   -4.1191 C   0  0  0  0  0  0  0  0  0  0  0  0
    4.0596   -0.4361   -4.7691 C   0  0  0  0  0  0  0  0  0  0  0  0
    4.0804   -2.5585   -3.2377 C   0  0  0  0  0  0  0  0  0  0  0  0
    3.7177   -3.4576   -4.0002 O   0  0  0  0  0  0  0  0  0  0  0  0
    1.8180   -2.3201    1.4117 H   0  0  0  0  0  0  0  0  0  0  0  0
    3.0537   -3.1751    2.3389 H   0  0  0  0  0  0  0  0  0  0  0  0
    1.8120   -4.0933    1.4635 H   0  0  0  0  0  0  0  0  0  0  0  0
    3.2234   -2.4148   -0.3567 H   0  0  0  0  0  0  0  0  0  0  0  0
    6.0799   -3.8725   -0.9663 H   0  0  0  0  0  0  0  0  0  0  0  0
    5.0056   -4.8019   -1.9838 H   0  0  0  0  0  0  0  0  0  0  0  0
    4.2865    0.3976   -1.9969 H   0  0  0  0  0  0  0  0  0  0  0  0
    1.9645   -1.1547   -4.5627 H   0  0  0  0  0  0  0  0  0  0  0  0
    2.3125    0.4207   -3.6576 H   0  0  0  0  0  0  0  0  0  0  0  0
    4.5975    0.5163   -4.7710 H   0  0  0  0  0  0  0  0  0  0  0  0
    4.2048   -1.0886   -5.6346 H   0  0  0  0  0  0  0  0  0  0  0  0
  1  2  1  0
  1 15  1  0
  1 16  1  0
  1 17  1  0
  2  3  1  0
  2 18  1  0
  3  4  2  0
  3  5  1  0
  5  6  1  0
  5 19  1  0
  5 20  1  0
  6 13  1  0
  6  7  1  0
  7  8  2  0
  7  9  1  0
  9 10  1  0
  9 21  1  0
 10 12  1  0
 10 11  1  0
 10 13  1  0
 11 12  1  0
 11 22  1  0
 11 23  1  0
 12 24  1  0
 12 25  1  0
 13 14  2  0
M  END
>  <i_m_ct_stereo_status>  (164) 
1

>  <s_m_source_file>  (164) 
/var/tmp/pbs.5076255.sched01/tmp2djcgp0g/84b3bpyveh.sdf

>  <i_m_source_file_index>  (164) 
11

>  <i_lp_mmshare_version>  (164) 
48012

>  <i_f3d_flags>  (164) 
0

>  <s_epik_input>  (164) 
W0NIM11bTkhdQyg9TylbQ0gyXU4oQzE9TylDKD1PKVtOSF1DMTJbQ0gyXVtDSDJdMg==

>  <s_epik_cmdline>  (164) 
J2VwaWtfcHl0aG9uJywgJy1waHQnLCAnMi4wJywgJy1waCcsICc3LjAnLCAnLXRuJywgJzgnLCAnLW1hJywgJzIwMCcsICctaW1hZScsICc8aW5maWxlLm1hZT4nLCAnLW9tYWUnLCAnPG91dGZpbGUubWFlPic=

>  <r_lp_tautomer_probability>  (164) 
1

>  <r_epik_Ionization_Penalty>  (164) 
5.21339e-05

>  <r_epik_Ionization_Penalty_Charging>  (164) 
0

>  <r_epik_Ionization_Penalty_Neutral>  (164) 
5.21339e-05

>  <r_epik_State_Penalty>  (164) 
-0

>  <r_epik_Charging_Adjusted_Penalty>  (164) 
0

>  <i_epik_Tot_Q>  (164) 
0

>  <i_epik_Tot_abs_Q>  (164) 
0

>  <s_lp_Force_Field>  (164) 
OPLS3e

>  <r_lp_Energy>  (164) 
-4.87118

>  <b_lp_Chiralities_Consistent>  (164) 
1

>  <s_lp_Variant>  (164) 
56:0-1

>  <s_i_glide_gridfile>  (164) 
pfpi4k_grid

>  <i_i_glide_lignum>  (164) 
11

>  <i_i_glide_rotatable_bonds>  (164) 
3

>  <r_i_docking_score>  (164) 
-4.06452

>  <r_i_glide_ligand_efficiency>  (164) 
-0.290323

>  <r_i_glide_ligand_efficiency_sa>  (164) 
-0.69972

>  <r_i_glide_ligand_efficiency_ln>  (164) 
-1.11692

>  <r_i_glide_gscore>  (164) 
-4.06452

>  <r_i_glide_lipo>  (164) 
-0.581208

>  <r_i_glide_hbond>  (164) 
-0.155436

>  <r_i_glide_metal>  (164) 
-0

>  <r_i_glide_rewards>  (164) 
-2.32779

>  <r_i_glide_evdw>  (164) 
-20.7597

>  <r_i_glide_ecoul>  (164) 
-2.1117

>  <r_i_glide_erotb>  (164) 
0.418064

>  <r_i_glide_esite>  (164) 
-0.0634117

>  <r_i_glide_emodel>  (164) 
-27.654

>  <r_i_glide_energy>  (164) 
-22.8714

>  <r_i_glide_einternal>  (164) 
2.36645

>  <r_i_glide_intrahb_reward>  (164) 
-0

>  <i_i_glide_confnum>  (164) 
2

>  <i_i_glide_posenum>  (164) 
15

>  <r_i_glide_eff_state_penalty>  (164) 
0

>  <ligand_id>  (164) 
56

>  <original_smiles>  (164) 
CNC(=O)CN1C(=O)NC2(CC2)C1=O

>  <smiles>  (164) 
[H]N(C(=O)C([H])([H])N1C(=O)N([H])C2(C1=O)C([H])([H])C2([H])[H])C([H])([H])[H]

$$$$
56:0:1
     RDKit          3D

 25 26  0  0  1  0  0  0  0  0999 V2000
    2.0948   -1.3256    2.1706 C   0  0  0  0  0  0  0  0  0  0  0  0
    2.6300   -2.0736    1.0551 N   0  0  0  0  0  0  0  0  0  0  0  0
    3.5810   -3.0137    1.1340 C   0  0  0  0  0  0  0  0  0  0  0  0
    4.0831   -3.3819    2.1964 O   0  0  0  0  0  0  0  0  0  0  0  0
    4.0410   -3.6470   -0.1847 C   0  0  0  0  0  0  0  0  0  0  0  0
    3.6012   -2.9043   -1.3868 N   0  0  0  0  0  0  0  0  0  0  0  0
    2.3933   -3.1860   -1.9763 C   0  0  0  0  0  0  0  0  0  0  0  0
    1.5064   -3.9033   -1.5035 O   0  0  0  0  0  0  0  0  0  0  0  0
    2.3625   -2.4798   -3.1040 N   0  0  0  0  0  0  0  0  0  0  0  0
    3.4392   -1.5618   -3.1812 C   0  0  0  0  0  0  0  0  0  0  0  0
    3.9325   -1.1242   -4.5204 C   0  0  0  0  0  0  0  0  0  0  0  0
    3.2313   -0.1359   -3.6418 C   0  0  0  0  0  0  0  0  0  0  0  0
    4.2801   -1.9179   -2.0122 C   0  0  0  0  0  0  0  0  0  0  0  0
    5.3779   -1.3965   -1.7229 O   0  0  0  0  0  0  0  0  0  0  0  0
    1.3214   -0.6507    1.8039 H   0  0  0  0  0  0  0  0  0  0  0  0
    2.8805   -0.7336    2.6397 H   0  0  0  0  0  0  0  0  0  0  0  0
    1.6562   -1.9965    2.9082 H   0  0  0  0  0  0  0  0  0  0  0  0
    2.2531   -1.8446    0.1393 H   0  0  0  0  0  0  0  0  0  0  0  0
    5.1266   -3.7841   -0.1804 H   0  0  0  0  0  0  0  0  0  0  0  0
    3.6286   -4.6601   -0.2165 H   0  0  0  0  0  0  0  0  0  0  0  0
    1.6802   -2.6097   -3.8384 H   0  0  0  0  0  0  0  0  0  0  0  0
    5.0166   -1.0239   -4.6347 H   0  0  0  0  0  0  0  0  0  0  0  0
    3.4144   -1.5109   -5.3822 H   0  0  0  0  0  0  0  0  0  0  0  0
    2.2132    0.1608   -3.9145 H   0  0  0  0  0  0  0  0  0  0  0  0
    3.8241    0.6420   -3.1646 H   0  0  0  0  0  0  0  0  0  0  0  0
  1  2  1  0
  1 15  1  0
  1 16  1  0
  1 17  1  0
  2  3  1  0
  2 18  1  0
  3  4  2  0
  3  5  1  0
  5  6  1  0
  5 19  1  0
  5 20  1  0
  6 13  1  0
  6  7  1  0
  7  8  2  0
  7  9  1  0
  9 10  1  0
  9 21  1  0
 10 12  1  0
 10 11  1  0
 10 13  1  0
 11 12  1  0
 11 22  1  0
 11 23  1  0
 12 24  1  0
 12 25  1  0
 13 14  2  0
M  END
>  <i_m_ct_stereo_status>  (165) 
1

>  <s_m_source_file>  (165) 
/var/tmp/pbs.5076255.sched01/tmp2djcgp0g/84b3bpyveh.sdf

>  <i_m_source_file_index>  (165) 
11

>  <i_lp_mmshare_version>  (165) 
48012

>  <i_f3d_flags>  (165) 
0

>  <s_epik_input>  (165) 
W0NIM11bTkhdQyg9TylbQ0gyXU4oQzE9TylDKD1PKVtOSF1DMTJbQ0gyXVtDSDJdMg==

>  <s_epik_cmdline>  (165) 
J2VwaWtfcHl0aG9uJywgJy1waHQnLCAnMi4wJywgJy1waCcsICc3LjAnLCAnLXRuJywgJzgnLCAnLW1hJywgJzIwMCcsICctaW1hZScsICc8aW5maWxlLm1hZT4nLCAnLW9tYWUnLCAnPG91dGZpbGUubWFlPic=

>  <r_lp_tautomer_probability>  (165) 
1

>  <r_epik_Ionization_Penalty>  (165) 
5.21339e-05

>  <r_epik_Ionization_Penalty_Charging>  (165) 
0

>  <r_epik_Ionization_Penalty_Neutral>  (165) 
5.21339e-05

>  <r_epik_State_Penalty>  (165) 
-0

>  <r_epik_Charging_Adjusted_Penalty>  (165) 
0

>  <i_epik_Tot_Q>  (165) 
0

>  <i_epik_Tot_abs_Q>  (165) 
0

>  <s_lp_Force_Field>  (165) 
OPLS3e

>  <r_lp_Energy>  (165) 
-4.87118

>  <b_lp_Chiralities_Consistent>  (165) 
1

>  <s_lp_Variant>  (165) 
56:0-1

>  <s_i_glide_gridfile>  (165) 
pfpi4k_grid

>  <i_i_glide_lignum>  (165) 
11

>  <i_i_glide_rotatable_bonds>  (165) 
3

>  <r_i_docking_score>  (165) 
-3.71121

>  <r_i_glide_ligand_efficiency>  (165) 
-0.265086

>  <r_i_glide_ligand_efficiency_sa>  (165) 
-0.638895

>  <r_i_glide_ligand_efficiency_ln>  (165) 
-1.01983

>  <r_i_glide_gscore>  (165) 
-3.71121

>  <r_i_glide_lipo>  (165) 
-0.212623

>  <r_i_glide_hbond>  (165) 
-0.146538

>  <r_i_glide_metal>  (165) 
-0

>  <r_i_glide_rewards>  (165) 
-2.192

>  <r_i_glide_evdw>  (165) 
-17.9538

>  <r_i_glide_ecoul>  (165) 
-3.92774

>  <r_i_glide_erotb>  (165) 
0.418064

>  <r_i_glide_esite>  (165) 
-0.0912584

>  <r_i_glide_emodel>  (165) 
-27.1463

>  <r_i_glide_energy>  (165) 
-21.8816

>  <r_i_glide_einternal>  (165) 
1.4773

>  <r_i_glide_intrahb_reward>  (165) 
-0

>  <i_i_glide_confnum>  (165) 
4

>  <i_i_glide_posenum>  (165) 
2

>  <r_i_glide_eff_state_penalty>  (165) 
0

>  <ligand_id>  (165) 
56

>  <original_smiles>  (165) 
CNC(=O)CN1C(=O)NC2(CC2)C1=O

>  <smiles>  (165) 
[H]N(C(=O)C([H])([H])N1C(=O)N([H])C2(C1=O)C([H])([H])C2([H])[H])C([H])([H])[H]

$$$$
56:0:2
     RDKit          3D

 25 26  0  0  1  0  0  0  0  0999 V2000
   -0.1298   -3.3372    6.2402 C   0  0  0  0  0  0  0  0  0  0  0  0
    0.2741   -1.9547    6.0247 N   0  0  0  0  0  0  0  0  0  0  0  0
   -0.5796   -0.9564    5.7399 C   0  0  0  0  0  0  0  0  0  0  0  0
   -1.7990   -1.1163    5.6674 O   0  0  0  0  0  0  0  0  0  0  0  0
    0.0306    0.4340    5.5288 C   0  0  0  0  0  0  0  0  0  0  0  0
   -0.6647    1.2085    4.4694 N   0  0  0  0  0  0  0  0  0  0  0  0
   -0.3110    1.0676    3.1498 C   0  0  0  0  0  0  0  0  0  0  0  0
    0.4620    0.2319    2.7137 O   0  0  0  0  0  0  0  0  0  0  0  0
   -0.9774    2.0011    2.4779 N   0  0  0  0  0  0  0  0  0  0  0  0
   -1.8924    2.7022    3.2963 C   0  0  0  0  0  0  0  0  0  0  0  0
   -2.2701    4.1326    3.0112 C   0  0  0  0  0  0  0  0  0  0  0  0
   -3.2819    3.0223    2.8006 C   0  0  0  0  0  0  0  0  0  0  0  0
   -1.6001    2.1323    4.6389 C   0  0  0  0  0  0  0  0  0  0  0  0
   -2.1391    2.4910    5.7238 O   0  0  0  0  0  0  0  0  0  0  0  0
    0.7346   -3.9526    6.4898 H   0  0  0  0  0  0  0  0  0  0  0  0
   -0.5852   -3.7514    5.3412 H   0  0  0  0  0  0  0  0  0  0  0  0
   -0.8457   -3.4179    7.0585 H   0  0  0  0  0  0  0  0  0  0  0  0
    1.2656   -1.7576    6.0755 H   0  0  0  0  0  0  0  0  0  0  0  0
    0.0520    0.9851    6.4776 H   0  0  0  0  0  0  0  0  0  0  0  0
    1.0762    0.3218    5.2398 H   0  0  0  0  0  0  0  0  0  0  0  0
   -0.7231    2.3007    1.5417 H   0  0  0  0  0  0  0  0  0  0  0  0
   -2.3972    4.7811    3.8717 H   0  0  0  0  0  0  0  0  0  0  0  0
   -1.7860    4.5826    2.1391 H   0  0  0  0  0  0  0  0  0  0  0  0
   -3.5153    2.6991    1.7817 H   0  0  0  0  0  0  0  0  0  0  0  0
   -4.0999    2.9387    3.5128 H   0  0  0  0  0  0  0  0  0  0  0  0
  1  2  1  0
  1 15  1  0
  1 16  1  0
  1 17  1  0
  2  3  1  0
  2 18  1  0
  3  4  2  0
  3  5  1  0
  5  6  1  0
  5 19  1  0
  5 20  1  0
  6 13  1  0
  6  7  1  0
  7  8  2  0
  7  9  1  0
  9 10  1  0
  9 21  1  0
 10 12  1  0
 10 11  1  0
 10 13  1  0
 11 12  1  0
 11 22  1  0
 11 23  1  0
 12 24  1  0
 12 25  1  0
 13 14  2  0
M  END
>  <i_m_ct_stereo_status>  (166) 
1

>  <s_m_source_file>  (166) 
/var/tmp/pbs.5076255.sched01/tmp2djcgp0g/84b3bpyveh.sdf

>  <i_m_source_file_index>  (166) 
11

>  <i_lp_mmshare_version>  (166) 
48012

>  <i_f3d_flags>  (166) 
0

>  <s_epik_input>  (166) 
W0NIM11bTkhdQyg9TylbQ0gyXU4oQzE9TylDKD1PKVtOSF1DMTJbQ0gyXVtDSDJdMg==

>  <s_epik_cmdline>  (166) 
J2VwaWtfcHl0aG9uJywgJy1waHQnLCAnMi4wJywgJy1waCcsICc3LjAnLCAnLXRuJywgJzgnLCAnLW1hJywgJzIwMCcsICctaW1hZScsICc8aW5maWxlLm1hZT4nLCAnLW9tYWUnLCAnPG91dGZpbGUubWFlPic=

>  <r_lp_tautomer_probability>  (166) 
1

>  <r_epik_Ionization_Penalty>  (166) 
5.21339e-05

>  <r_epik_Ionization_Penalty_Charging>  (166) 
0

>  <r_epik_Ionization_Penalty_Neutral>  (166) 
5.21339e-05

>  <r_epik_State_Penalty>  (166) 
-0

>  <r_epik_Charging_Adjusted_Penalty>  (166) 
0

>  <i_epik_Tot_Q>  (166) 
0

>  <i_epik_Tot_abs_Q>  (166) 
0

>  <s_lp_Force_Field>  (166) 
OPLS3e

>  <r_lp_Energy>  (166) 
-4.87118

>  <b_lp_Chiralities_Consistent>  (166) 
1

>  <s_lp_Variant>  (166) 
56:0-1

>  <s_i_glide_gridfile>  (166) 
pfpi4k_grid

>  <i_i_glide_lignum>  (166) 
11

>  <i_i_glide_rotatable_bonds>  (166) 
3

>  <r_i_docking_score>  (166) 
-3.15016

>  <r_i_glide_ligand_efficiency>  (166) 
-0.225012

>  <r_i_glide_ligand_efficiency_sa>  (166) 
-0.54231

>  <r_i_glide_ligand_efficiency_ln>  (166) 
-0.865654

>  <r_i_glide_gscore>  (166) 
-3.15016

>  <r_i_glide_lipo>  (166) 
0

>  <r_i_glide_hbond>  (166) 
-0.0534118

>  <r_i_glide_metal>  (166) 
-0

>  <r_i_glide_rewards>  (166) 
-2.06461

>  <r_i_glide_evdw>  (166) 
-18.3672

>  <r_i_glide_ecoul>  (166) 
-2.22693

>  <r_i_glide_erotb>  (166) 
0.418064

>  <r_i_glide_esite>  (166) 
-0.197813

>  <r_i_glide_emodel>  (166) 
-25.2607

>  <r_i_glide_energy>  (166) 
-20.5941

>  <r_i_glide_einternal>  (166) 
0.439958

>  <r_i_glide_intrahb_reward>  (166) 
-0

>  <i_i_glide_confnum>  (166) 
1

>  <i_i_glide_posenum>  (166) 
10

>  <r_i_glide_eff_state_penalty>  (166) 
0

>  <ligand_id>  (166) 
56

>  <original_smiles>  (166) 
CNC(=O)CN1C(=O)NC2(CC2)C1=O

>  <smiles>  (166) 
[H]N(C(=O)C([H])([H])N1C(=O)N([H])C2(C1=O)C([H])([H])C2([H])[H])C([H])([H])[H]

$$$$
57:0:0
     RDKit          3D

 49 54  0  0  1  0  0  0  0  0999 V2000
   -3.6757    3.3499    2.8850 C   0  0  0  0  0  0  0  0  0  0  0  0
   -2.5545    4.1705    3.1862 O   0  0  0  0  0  0  0  0  0  0  0  0
   -1.4619    3.5126    3.7580 C   0  0  1  0  0  0  0  0  0  0  0  0
   -1.7062    3.3040    5.3265 C   0  0  0  0  0  0  0  0  0  0  0  0
   -0.8007    2.9591    6.3377 C   0  0  0  0  0  0  0  0  0  0  0  0
    0.7895    2.7755    6.2322 C   0  0  1  0  0  0  0  0  0  0  0  0
    1.1919    4.0494    7.0858 C   0  0  0  0  0  0  0  0  0  0  0  0
    2.0129    1.4973    5.9346 C   0  0  2  0  0  0  0  0  0  0  0  0
    3.2227    2.3277    5.9823 C   0  0  0  0  0  0  0  0  0  0  0  0
    2.4906    3.0775    4.9110 C   0  0  0  0  0  0  0  0  0  0  0  0
    0.8664    2.6047    4.8378 C   0  0  1  0  0  0  0  0  0  0  0  0
   -0.1100    1.1113    4.8391 C   0  0  0  0  0  0  0  0  0  0  0  0
    0.1331   -0.2104    4.7865 C   0  0  0  0  0  0  0  0  0  0  0  0
   -0.9700   -1.2522    4.8127 C   0  0  0  0  0  0  0  0  0  0  0  0
    1.5040   -0.6702    4.5477 C   0  0  0  0  0  0  0  0  0  0  0  0
    2.2556    0.6267    4.3561 C   0  0  2  0  0  0  0  0  0  0  0  0
    3.7080    0.1235    4.1127 C   0  0  0  0  0  0  0  0  0  0  0  0
    1.7386    1.3660    2.8792 C   0  0  1  0  0  0  0  0  0  0  0  0
    0.6600    0.9807    1.9983 C   0  0  0  0  0  0  0  0  0  0  0  0
    0.4075    2.4161    2.5364 C   0  0  2  0  0  0  0  0  0  0  0  0
   -1.0375    2.3921    2.9099 O   0  0  0  0  0  0  0  0  0  0  0  0
    0.6490    3.4597    3.5911 C   0  0  1  0  0  0  0  0  0  0  0  0
   -0.4183    4.3498    3.7022 O   0  0  0  0  0  0  0  0  0  0  0  0
   -4.4327    3.9606    2.3920 H   0  0  0  0  0  0  0  0  0  0  0  0
   -4.1239    2.9375    3.7884 H   0  0  0  0  0  0  0  0  0  0  0  0
   -3.4177    2.5404    2.2043 H   0  0  0  0  0  0  0  0  0  0  0  0
   -2.7345    3.4348    5.6267 H   0  0  0  0  0  0  0  0  0  0  0  0
   -1.1934    2.8613    7.3357 H   0  0  0  0  0  0  0  0  0  0  0  0
    2.2185    4.4030    7.1246 H   0  0  0  0  0  0  0  0  0  0  0  0
    0.9225    3.8777    8.1300 H   0  0  0  0  0  0  0  0  0  0  0  0
    0.6236    4.9243    6.7656 H   0  0  0  0  0  0  0  0  0  0  0  0
    2.0482    0.7942    6.7710 H   0  0  0  0  0  0  0  0  0  0  0  0
    3.3813    2.7917    6.9499 H   0  0  0  0  0  0  0  0  0  0  0  0
    4.1725    1.8994    5.6849 H   0  0  0  0  0  0  0  0  0  0  0  0
    2.6052    4.1528    5.0697 H   0  0  0  0  0  0  0  0  0  0  0  0
    3.0934    2.9906    4.0027 H   0  0  0  0  0  0  0  0  0  0  0  0
   -1.1852    1.1378    4.8622 H   0  0  0  0  0  0  0  0  0  0  0  0
   -0.5719   -2.2656    4.7702 H   0  0  0  0  0  0  0  0  0  0  0  0
   -1.6336   -1.1011    3.9634 H   0  0  0  0  0  0  0  0  0  0  0  0
   -1.5735   -1.1494    5.7138 H   0  0  0  0  0  0  0  0  0  0  0  0
    1.8561   -1.2450    5.4058 H   0  0  0  0  0  0  0  0  0  0  0  0
    1.5362   -1.3028    3.6579 H   0  0  0  0  0  0  0  0  0  0  0  0
    3.7431   -0.6251    3.3191 H   0  0  0  0  0  0  0  0  0  0  0  0
    4.1347   -0.3333    5.0086 H   0  0  0  0  0  0  0  0  0  0  0  0
    4.3752    0.9240    3.7872 H   0  0  0  0  0  0  0  0  0  0  0  0
    2.6257    1.6731    2.3270 H   0  0  0  0  0  0  0  0  0  0  0  0
    0.9324    0.9258    0.9483 H   0  0  0  0  0  0  0  0  0  0  0  0
   -0.0091    0.1793    2.2889 H   0  0  0  0  0  0  0  0  0  0  0  0
    1.4588    4.0939    3.2203 H   0  0  0  0  0  0  0  0  0  0  0  0
  1  2  1  0
  1 24  1  0
  1 25  1  0
  1 26  1  0
  3  2  1  6
  3 21  1  0
  3 23  1  0
  3  4  1  0
  4  5  2  0
  4 27  1  0
  5  6  1  0
  5 28  1  0
  6 11  1  0
  6  7  1  6
  6  8  1  0
  7 29  1  0
  7 30  1  0
  7 31  1  0
  8 16  1  0
  8  9  1  0
  8 32  1  1
  9 10  1  0
  9 33  1  0
  9 34  1  0
 11 10  1  1
 10 35  1  0
 10 36  1  0
 11 22  1  0
 11 12  1  0
 12 13  2  0
 12 37  1  0
 13 14  1  0
 13 15  1  0
 14 38  1  0
 14 39  1  0
 14 40  1  0
 15 16  1  0
 15 41  1  0
 15 42  1  0
 16 17  1  6
 16 18  1  0
 17 43  1  0
 17 44  1  0
 17 45  1  0
 18 20  1  0
 18 19  1  0
 18 46  1  6
 19 20  1  0
 19 47  1  0
 19 48  1  0
 20 21  1  1
 20 22  1  0
 22 23  1  0
 22 49  1  6
M  END
>  <i_m_ct_stereo_status>  (167) 
1

>  <s_m_source_file>  (167) 
/var/tmp/pbs.5076255.sched01/tmp2djcgp0g/84b3bpyveh.sdf

>  <i_m_source_file_index>  (167) 
12

>  <i_lp_mmshare_version>  (167) 
48012

>  <i_f3d_flags>  (167) 
0

>  <s_epik_input>  (167) 
W0NIM11PW0NAXShPMSkoW0NIXT1bQ0hdMilPW0NAQEhdM1tDQEBdMShbQ0gyXTQpW0NASF00W0NAQF0oW0NIM10pKFtDQEhdKEMyKFtDQEBdMzU2KVtDSDNdKVtDSDJdW0NIMl01KVtDSDJdQyg9W0NIXTYpW0NIM10=

>  <s_epik_cmdline>  (167) 
J2VwaWtfcHl0aG9uJywgJy1waHQnLCAnMi4wJywgJy1waCcsICc3LjAnLCAnLXRuJywgJzgnLCAnLW1hJywgJzIwMCcsICctaW1hZScsICc8aW5maWxlLm1hZT4nLCAnLW9tYWUnLCAnPG91dGZpbGUubWFlPic=

>  <r_lp_tautomer_probability>  (167) 
1

>  <r_epik_Ionization_Penalty>  (167) 
1.98653e-14

>  <r_epik_Ionization_Penalty_Charging>  (167) 
0

>  <r_epik_Ionization_Penalty_Neutral>  (167) 
1.98653e-14

>  <r_epik_State_Penalty>  (167) 
-0

>  <r_epik_Charging_Adjusted_Penalty>  (167) 
0

>  <i_epik_Tot_Q>  (167) 
0

>  <i_epik_Tot_abs_Q>  (167) 
0

>  <s_lp_Force_Field>  (167) 
OPLS3e

>  <r_lp_Energy>  (167) 
479.244

>  <b_lp_Chiralities_Consistent>  (167) 
1

>  <s_lp_Variant>  (167) 
57:0-1

>  <s_i_glide_gridfile>  (167) 
pfpi4k_grid

>  <i_i_glide_lignum>  (167) 
12

>  <i_i_glide_rotatable_bonds>  (167) 
1

>  <r_i_docking_score>  (167) 
-2.58389

>  <r_i_glide_ligand_efficiency>  (167) 
-0.112343

>  <r_i_glide_ligand_efficiency_sa>  (167) 
-0.319489

>  <r_i_glide_ligand_efficiency_ln>  (167) 
-0.624809

>  <r_i_glide_gscore>  (167) 
-2.58389

>  <r_i_glide_lipo>  (167) 
-0.0135039

>  <r_i_glide_hbond>  (167) 
-0.0686142

>  <r_i_glide_metal>  (167) 
-0

>  <r_i_glide_rewards>  (167) 
-1.26533

>  <r_i_glide_evdw>  (167) 
-19.2955

>  <r_i_glide_ecoul>  (167) 
-1.37623

>  <r_i_glide_erotb>  (167) 
0

>  <r_i_glide_esite>  (167) 
-0.0652418

>  <r_i_glide_emodel>  (167) 
-23.7666

>  <r_i_glide_energy>  (167) 
-20.6717

>  <r_i_glide_einternal>  (167) 
0.239201

>  <r_i_glide_intrahb_reward>  (167) 
-0

>  <i_i_glide_confnum>  (167) 
1

>  <i_i_glide_posenum>  (167) 
2

>  <r_i_glide_eff_state_penalty>  (167) 
0

>  <ligand_id>  (167) 
57

>  <original_smiles>  (167) 
COC12C=CC3(C)C4CCC35C=C(C)CC4(C)C3CC3(O1)C5O2

>  <smiles>  (167) 
[H]C1=C([H])C2(C([H])([H])[H])C3([H])C([H])([H])C([H])([H])C24C([H])=C(C([H])([H])[H])C([H])([H])C3(C([H])([H])[H])C2([H])C([H])([H])C23OC1(OC([H])([H])[H])OC34[H]

$$$$
57:0:1
     RDKit          3D

 49 54  0  0  1  0  0  0  0  0999 V2000
   -0.1501   -3.0205    5.3096 C   0  0  0  0  0  0  0  0  0  0  0  0
   -1.1883   -2.0957    5.6192 O   0  0  0  0  0  0  0  0  0  0  0  0
   -0.8017   -0.7566    5.7046 C   0  0  1  0  0  0  0  0  0  0  0  0
    0.0199   -0.5058    7.0572 C   0  0  0  0  0  0  0  0  0  0  0  0
    0.3517    0.6929    7.6995 C   0  0  0  0  0  0  0  0  0  0  0  0
   -0.0943    2.1800    7.3150 C   0  0  1  0  0  0  0  0  0  0  0  0
   -1.0428    2.4293    8.5613 C   0  0  0  0  0  0  0  0  0  0  0  0
    0.4773    3.5794    6.3511 C   0  0  2  0  0  0  0  0  0  0  0  0
   -0.6546    4.4844    6.5798 C   0  0  0  0  0  0  0  0  0  0  0  0
   -1.4211    3.3215    6.0282 C   0  0  0  0  0  0  0  0  0  0  0  0
   -0.4612    1.9278    5.9802 C   0  0  1  0  0  0  0  0  0  0  0  0
    1.1780    1.4299    5.4835 C   0  0  0  0  0  0  0  0  0  0  0  0
    2.2183    2.0012    4.8510 C   0  0  0  0  0  0  0  0  0  0  0  0
    3.5231    1.2726    4.5834 C   0  0  0  0  0  0  0  0  0  0  0  0
    2.0487    3.3339    4.2649 C   0  0  0  0  0  0  0  0  0  0  0  0
    0.5918    3.6253    4.5362 C   0  0  2  0  0  0  0  0  0  0  0  0
    0.4307    5.0441    3.9159 C   0  0  0  0  0  0  0  0  0  0  0  0
   -0.3836    2.5558    3.5860 C   0  0  1  0  0  0  0  0  0  0  0  0
    0.0245    1.4280    2.7779 C   0  0  0  0  0  0  0  0  0  0  0  0
   -0.9460    0.9495    3.8945 C   0  0  2  0  0  0  0  0  0  0  0  0
   -0.2896   -0.2904    4.4098 O   0  0  0  0  0  0  0  0  0  0  0  0
   -1.5609    1.1675    5.2474 C   0  0  1  0  0  0  0  0  0  0  0  0
   -1.9206   -0.0339    5.8612 O   0  0  0  0  0  0  0  0  0  0  0  0
   -0.5864   -4.0116    5.1931 H   0  0  0  0  0  0  0  0  0  0  0  0
    0.5948   -3.0925    6.1029 H   0  0  0  0  0  0  0  0  0  0  0  0
    0.3533   -2.7660    4.3758 H   0  0  0  0  0  0  0  0  0  0  0  0
    0.3867   -1.4049    7.5254 H   0  0  0  0  0  0  0  0  0  0  0  0
    0.9311    0.6192    8.6047 H   0  0  0  0  0  0  0  0  0  0  0  0
   -1.6984    3.2940    8.6092 H   0  0  0  0  0  0  0  0  0  0  0  0
   -0.4311    2.5026    9.4633 H   0  0  0  0  0  0  0  0  0  0  0  0
   -1.7110    1.5808    8.7191 H   0  0  0  0  0  0  0  0  0  0  0  0
    1.3677    4.0234    6.8031 H   0  0  0  0  0  0  0  0  0  0  0  0
   -0.7746    4.7609    7.6227 H   0  0  0  0  0  0  0  0  0  0  0  0
   -0.7173    5.4017    6.0075 H   0  0  0  0  0  0  0  0  0  0  0  0
   -2.3390    3.1782    6.6056 H   0  0  0  0  0  0  0  0  0  0  0  0
   -1.8764    3.6634    5.0949 H   0  0  0  0  0  0  0  0  0  0  0  0
    1.5496    0.4360    5.6614 H   0  0  0  0  0  0  0  0  0  0  0  0
    4.2433    1.9189    4.0859 H   0  0  0  0  0  0  0  0  0  0  0  0
    3.3469    0.4048    3.9460 H   0  0  0  0  0  0  0  0  0  0  0  0
    3.9620    0.9172    5.5172 H   0  0  0  0  0  0  0  0  0  0  0  0
    2.7239    4.0410    4.7493 H   0  0  0  0  0  0  0  0  0  0  0  0
    2.2739    3.3045    3.1965 H   0  0  0  0  0  0  0  0  0  0  0  0
    0.7929    5.0701    2.8850 H   0  0  0  0  0  0  0  0  0  0  0  0
    0.9867    5.8000    4.4757 H   0  0  0  0  0  0  0  0  0  0  0  0
   -0.6128    5.3551    3.8632 H   0  0  0  0  0  0  0  0  0  0  0  0
   -1.1503    3.1495    3.0917 H   0  0  0  0  0  0  0  0  0  0  0  0
   -0.3880    1.4296    1.7729 H   0  0  0  0  0  0  0  0  0  0  0  0
    1.0590    1.1059    2.7940 H   0  0  0  0  0  0  0  0  0  0  0  0
   -2.5221    1.6540    5.0684 H   0  0  0  0  0  0  0  0  0  0  0  0
  1  2  1  0
  1 24  1  0
  1 25  1  0
  1 26  1  0
  3  2  1  6
  3 21  1  0
  3 23  1  0
  3  4  1  0
  4  5  2  0
  4 27  1  0
  5  6  1  0
  5 28  1  0
  6 11  1  0
  6  7  1  1
  6  8  1  0
  7 29  1  0
  7 30  1  0
  7 31  1  0
  8 16  1  0
  8  9  1  0
  8 32  1  1
  9 10  1  0
  9 33  1  0
  9 34  1  0
 11 10  1  6
 10 35  1  0
 10 36  1  0
 11 22  1  0
 11 12  1  0
 12 13  2  0
 12 37  1  0
 13 14  1  0
 13 15  1  0
 14 38  1  0
 14 39  1  0
 14 40  1  0
 15 16  1  0
 15 41  1  0
 15 42  1  0
 16 17  1  6
 16 18  1  0
 17 43  1  0
 17 44  1  0
 17 45  1  0
 18 20  1  0
 18 19  1  0
 18 46  1  6
 19 20  1  0
 19 47  1  0
 19 48  1  0
 20 21  1  1
 20 22  1  0
 22 23  1  0
 22 49  1  6
M  END
>  <i_m_ct_stereo_status>  (168) 
1

>  <s_m_source_file>  (168) 
/var/tmp/pbs.5076255.sched01/tmp2djcgp0g/84b3bpyveh.sdf

>  <i_m_source_file_index>  (168) 
12

>  <i_lp_mmshare_version>  (168) 
48012

>  <i_f3d_flags>  (168) 
0

>  <s_epik_input>  (168) 
W0NIM11PW0NAXShPMSkoW0NIXT1bQ0hdMilPW0NAQEhdM1tDQEBdMShbQ0gyXTQpW0NASF00W0NAQF0oW0NIM10pKFtDQEhdKEMyKFtDQEBdMzU2KVtDSDNdKVtDSDJdW0NIMl01KVtDSDJdQyg9W0NIXTYpW0NIM10=

>  <s_epik_cmdline>  (168) 
J2VwaWtfcHl0aG9uJywgJy1waHQnLCAnMi4wJywgJy1waCcsICc3LjAnLCAnLXRuJywgJzgnLCAnLW1hJywgJzIwMCcsICctaW1hZScsICc8aW5maWxlLm1hZT4nLCAnLW9tYWUnLCAnPG91dGZpbGUubWFlPic=

>  <r_lp_tautomer_probability>  (168) 
1

>  <r_epik_Ionization_Penalty>  (168) 
1.98653e-14

>  <r_epik_Ionization_Penalty_Charging>  (168) 
0

>  <r_epik_Ionization_Penalty_Neutral>  (168) 
1.98653e-14

>  <r_epik_State_Penalty>  (168) 
-0

>  <r_epik_Charging_Adjusted_Penalty>  (168) 
0

>  <i_epik_Tot_Q>  (168) 
0

>  <i_epik_Tot_abs_Q>  (168) 
0

>  <s_lp_Force_Field>  (168) 
OPLS3e

>  <r_lp_Energy>  (168) 
479.244

>  <b_lp_Chiralities_Consistent>  (168) 
1

>  <s_lp_Variant>  (168) 
57:0-1

>  <s_i_glide_gridfile>  (168) 
pfpi4k_grid

>  <i_i_glide_lignum>  (168) 
12

>  <i_i_glide_rotatable_bonds>  (168) 
1

>  <r_i_docking_score>  (168) 
-2.49337

>  <r_i_glide_ligand_efficiency>  (168) 
-0.108407

>  <r_i_glide_ligand_efficiency_sa>  (168) 
-0.308296

>  <r_i_glide_ligand_efficiency_ln>  (168) 
-0.602919

>  <r_i_glide_gscore>  (168) 
-2.49337

>  <r_i_glide_lipo>  (168) 
-0.0131068

>  <r_i_glide_hbond>  (168) 
-0.115713

>  <r_i_glide_metal>  (168) 
-0

>  <r_i_glide_rewards>  (168) 
-1.26533

>  <r_i_glide_evdw>  (168) 
-15.6574

>  <r_i_glide_ecoul>  (168) 
-1.818

>  <r_i_glide_erotb>  (168) 
0

>  <r_i_glide_esite>  (168) 
-0.0436523

>  <r_i_glide_emodel>  (168) 
-20.5611

>  <r_i_glide_energy>  (168) 
-17.4754

>  <r_i_glide_einternal>  (168) 
0.00197895

>  <r_i_glide_intrahb_reward>  (168) 
-0

>  <i_i_glide_confnum>  (168) 
2

>  <i_i_glide_posenum>  (168) 
37

>  <r_i_glide_eff_state_penalty>  (168) 
0

>  <ligand_id>  (168) 
57

>  <original_smiles>  (168) 
COC12C=CC3(C)C4CCC35C=C(C)CC4(C)C3CC3(O1)C5O2

>  <smiles>  (168) 
[H]C1=C([H])C2(C([H])([H])[H])C3([H])C([H])([H])C([H])([H])C24C([H])=C(C([H])([H])[H])C([H])([H])C3(C([H])([H])[H])C2([H])C([H])([H])C23OC1(OC([H])([H])[H])OC34[H]

$$$$
57:0:2
     RDKit          3D

 49 54  0  0  1  0  0  0  0  0999 V2000
    0.6078   -3.5632    4.5466 C   0  0  0  0  0  0  0  0  0  0  0  0
   -0.4197   -2.9096    5.2846 O   0  0  0  0  0  0  0  0  0  0  0  0
   -0.3006   -1.5242    5.4053 C   0  0  1  0  0  0  0  0  0  0  0  0
    0.8563   -1.1527    6.4490 C   0  0  0  0  0  0  0  0  0  0  0  0
    1.1420    0.0639    7.0780 C   0  0  0  0  0  0  0  0  0  0  0  0
    0.3082    1.4290    7.0243 C   0  0  1  0  0  0  0  0  0  0  0  0
   -0.1969    1.4072    8.5272 C   0  0  0  0  0  0  0  0  0  0  0  0
    0.2303    2.9584    6.0916 C   0  0  2  0  0  0  0  0  0  0  0  0
   -0.9162    3.5743    6.7694 C   0  0  0  0  0  0  0  0  0  0  0  0
   -1.5736    2.2913    6.3634 C   0  0  0  0  0  0  0  0  0  0  0  0
   -0.4269    1.1543    5.8569 C   0  0  1  0  0  0  0  0  0  0  0  0
    1.0164    1.0586    4.8127 C   0  0  0  0  0  0  0  0  0  0  0  0
    1.6475    1.8731    3.9500 C   0  0  0  0  0  0  0  0  0  0  0  0
    2.8996    1.4658    3.1958 C   0  0  0  0  0  0  0  0  0  0  0  0
    1.0303    3.1552    3.6021 C   0  0  0  0  0  0  0  0  0  0  0  0
   -0.2803    3.1000    4.3516 C   0  0  2  0  0  0  0  0  0  0  0  0
   -0.9256    4.4646    3.9782 C   0  0  0  0  0  0  0  0  0  0  0  0
   -1.2839    1.8787    3.6489 C   0  0  1  0  0  0  0  0  0  0  0  0
   -0.9541    0.9096    2.6291 C   0  0  0  0  0  0  0  0  0  0  0  0
   -1.3767    0.1786    3.9363 C   0  0  2  0  0  0  0  0  0  0  0  0
   -0.3501   -0.8980    4.0801 O   0  0  0  0  0  0  0  0  0  0  0  0
   -1.5343    0.1974    5.4290 C   0  0  1  0  0  0  0  0  0  0  0  0
   -1.4274   -1.0777    5.9819 O   0  0  0  0  0  0  0  0  0  0  0  0
    0.3567   -4.6214    4.4653 H   0  0  0  0  0  0  0  0  0  0  0  0
    1.5803   -3.4986    5.0349 H   0  0  0  0  0  0  0  0  0  0  0  0
    0.6913   -3.1656    3.5350 H   0  0  0  0  0  0  0  0  0  0  0  0
    1.5251   -1.9681    6.6711 H   0  0  0  0  0  0  0  0  0  0  0  0
    1.9949    0.0845    7.7357 H   0  0  0  0  0  0  0  0  0  0  0  0
   -0.9574    2.0983    8.8791 H   0  0  0  0  0  0  0  0  0  0  0  0
    0.6551    1.5814    9.1877 H   0  0  0  0  0  0  0  0  0  0  0  0
   -0.5857    0.4229    8.7938 H   0  0  0  0  0  0  0  0  0  0  0  0
    1.1137    3.5728    6.2828 H   0  0  0  0  0  0  0  0  0  0  0  0
   -0.7305    3.7738    7.8201 H   0  0  0  0  0  0  0  0  0  0  0  0
   -1.3534    4.4749    6.3560 H   0  0  0  0  0  0  0  0  0  0  0  0
   -2.1963    1.9229    7.1834 H   0  0  0  0  0  0  0  0  0  0  0  0
   -2.3746    2.5574    5.6687 H   0  0  0  0  0  0  0  0  0  0  0  0
    1.6140    0.1661    4.7507 H   0  0  0  0  0  0  0  0  0  0  0  0
    3.2573    2.2766    2.5652 H   0  0  0  0  0  0  0  0  0  0  0  0
    2.6971    0.6054    2.5565 H   0  0  0  0  0  0  0  0  0  0  0  0
    3.6932    1.1888    3.8909 H   0  0  0  0  0  0  0  0  0  0  0  0
    1.6726    3.9775    3.9204 H   0  0  0  0  0  0  0  0  0  0  0  0
    0.8935    3.2133    2.5207 H   0  0  0  0  0  0  0  0  0  0  0  0
   -0.9439    4.6105    2.8958 H   0  0  0  0  0  0  0  0  0  0  0  0
   -0.3740    5.3040    4.4070 H   0  0  0  0  0  0  0  0  0  0  0  0
   -1.9652    4.5254    4.3025 H   0  0  0  0  0  0  0  0  0  0  0  0
   -2.2773    2.2989    3.5016 H   0  0  0  0  0  0  0  0  0  0  0  0
   -1.6712    0.8626    1.8147 H   0  0  0  0  0  0  0  0  0  0  0  0
    0.0682    0.8271    2.2768 H   0  0  0  0  0  0  0  0  0  0  0  0
   -2.5773    0.4510    5.6303 H   0  0  0  0  0  0  0  0  0  0  0  0
  1  2  1  0
  1 24  1  0
  1 25  1  0
  1 26  1  0
  3  2  1  6
  3 21  1  0
  3 23  1  0
  3  4  1  0
  4  5  2  0
  4 27  1  0
  5  6  1  0
  5 28  1  0
  6 11  1  0
  6  7  1  1
  6  8  1  0
  7 29  1  0
  7 30  1  0
  7 31  1  0
  8 16  1  0
  8  9  1  0
  8 32  1  6
  9 10  1  0
  9 33  1  0
  9 34  1  0
 11 10  1  6
 10 35  1  0
 10 36  1  0
 11 22  1  0
 11 12  1  0
 12 13  2  0
 12 37  1  0
 13 14  1  0
 13 15  1  0
 14 38  1  0
 14 39  1  0
 14 40  1  0
 15 16  1  0
 15 41  1  0
 15 42  1  0
 16 17  1  1
 16 18  1  0
 17 43  1  0
 17 44  1  0
 17 45  1  0
 18 20  1  0
 18 19  1  0
 18 46  1  6
 19 20  1  0
 19 47  1  0
 19 48  1  0
 20 21  1  1
 20 22  1  0
 22 23  1  0
 22 49  1  6
M  END
>  <i_m_ct_stereo_status>  (169) 
1

>  <s_m_source_file>  (169) 
/var/tmp/pbs.5076255.sched01/tmp2djcgp0g/84b3bpyveh.sdf

>  <i_m_source_file_index>  (169) 
12

>  <i_lp_mmshare_version>  (169) 
48012

>  <i_f3d_flags>  (169) 
0

>  <s_epik_input>  (169) 
W0NIM11PW0NAXShPMSkoW0NIXT1bQ0hdMilPW0NAQEhdM1tDQEBdMShbQ0gyXTQpW0NASF00W0NAQF0oW0NIM10pKFtDQEhdKEMyKFtDQEBdMzU2KVtDSDNdKVtDSDJdW0NIMl01KVtDSDJdQyg9W0NIXTYpW0NIM10=

>  <s_epik_cmdline>  (169) 
J2VwaWtfcHl0aG9uJywgJy1waHQnLCAnMi4wJywgJy1waCcsICc3LjAnLCAnLXRuJywgJzgnLCAnLW1hJywgJzIwMCcsICctaW1hZScsICc8aW5maWxlLm1hZT4nLCAnLW9tYWUnLCAnPG91dGZpbGUubWFlPic=

>  <r_lp_tautomer_probability>  (169) 
1

>  <r_epik_Ionization_Penalty>  (169) 
1.98653e-14

>  <r_epik_Ionization_Penalty_Charging>  (169) 
0

>  <r_epik_Ionization_Penalty_Neutral>  (169) 
1.98653e-14

>  <r_epik_State_Penalty>  (169) 
-0

>  <r_epik_Charging_Adjusted_Penalty>  (169) 
0

>  <i_epik_Tot_Q>  (169) 
0

>  <i_epik_Tot_abs_Q>  (169) 
0

>  <s_lp_Force_Field>  (169) 
OPLS3e

>  <r_lp_Energy>  (169) 
479.244

>  <b_lp_Chiralities_Consistent>  (169) 
1

>  <s_lp_Variant>  (169) 
57:0-1

>  <s_i_glide_gridfile>  (169) 
pfpi4k_grid

>  <i_i_glide_lignum>  (169) 
12

>  <i_i_glide_rotatable_bonds>  (169) 
1

>  <r_i_docking_score>  (169) 
-2.36381

>  <r_i_glide_ligand_efficiency>  (169) 
-0.102775

>  <r_i_glide_ligand_efficiency_sa>  (169) 
-0.292277

>  <r_i_glide_ligand_efficiency_ln>  (169) 
-0.571592

>  <r_i_glide_gscore>  (169) 
-2.36381

>  <r_i_glide_lipo>  (169) 
-0.0197236

>  <r_i_glide_hbond>  (169) 
-0.0400302

>  <r_i_glide_metal>  (169) 
-0

>  <r_i_glide_rewards>  (169) 
-1.26533

>  <r_i_glide_evdw>  (169) 
-16.4296

>  <r_i_glide_ecoul>  (169) 
-1.29942

>  <r_i_glide_erotb>  (169) 
0

>  <r_i_glide_esite>  (169) 
-0.0223374

>  <r_i_glide_emodel>  (169) 
-20.6612

>  <r_i_glide_energy>  (169) 
-17.7291

>  <r_i_glide_einternal>  (169) 
0.0124518

>  <r_i_glide_intrahb_reward>  (169) 
-0

>  <i_i_glide_confnum>  (169) 
2

>  <i_i_glide_posenum>  (169) 
31

>  <r_i_glide_eff_state_penalty>  (169) 
0

>  <ligand_id>  (169) 
57

>  <original_smiles>  (169) 
COC12C=CC3(C)C4CCC35C=C(C)CC4(C)C3CC3(O1)C5O2

>  <smiles>  (169) 
[H]C1=C([H])C2(C([H])([H])[H])C3([H])C([H])([H])C([H])([H])C24C([H])=C(C([H])([H])[H])C([H])([H])C3(C([H])([H])[H])C2([H])C([H])([H])C23OC1(OC([H])([H])[H])OC34[H]

$$$$
59:0:0
     RDKit          3D

 39 42  0  0  1  0  0  0  0  0999 V2000
    7.9594   -3.0992   -1.5087 C   0  0  0  0  0  0  0  0  0  0  0  0
    7.3921   -2.9361   -0.1102 C   0  0  0  0  0  0  0  0  0  0  0  0
    6.3974   -2.0440    0.2048 C   0  0  0  0  0  0  0  0  0  0  0  0
    6.1444   -1.7703    1.6078 C   0  0  0  0  0  0  0  0  0  0  0  0
    5.5905   -2.7381    2.3348 C   0  0  0  0  0  0  0  0  0  0  0  0
    5.4374   -4.0711    1.7327 C   0  0  1  0  0  0  0  0  0  0  0  0
    6.7489   -4.8317    1.6904 C   0  0  0  0  0  0  0  0  0  0  0  0
    7.8055   -4.0596    0.8229 C   0  0  0  0  0  0  0  0  0  0  0  0
    8.9600   -4.4816    0.8692 O   0  0  0  0  0  0  0  0  0  0  0  0
    4.0622   -4.4892    1.7544 O   0  0  0  0  0  0  0  0  0  0  0  0
    4.6559   -4.4763    0.4671 C   0  0  1  0  0  0  0  0  0  0  0  0
    4.5747   -3.4773   -0.7011 C   0  0  1  0  0  0  0  0  0  0  0  0
    3.4826   -3.4520   -1.5933 O   0  0  0  0  0  0  0  0  0  0  0  0
    3.8945   -2.6127   -2.6863 C   0  0  0  0  0  0  0  0  0  0  0  0
    4.3852   -3.4980   -3.8405 C   0  0  0  0  0  0  0  0  0  0  0  0
    2.6629   -1.8507   -3.1731 C   0  0  0  0  0  0  0  0  0  0  0  0
    5.0135   -1.6931   -2.0973 C   0  0  0  0  0  0  0  0  0  0  0  0
    5.0547   -2.0223   -0.5916 C   0  0  2  0  0  0  0  0  0  0  0  0
    3.9881   -1.1070    0.0851 C   0  0  0  0  0  0  0  0  0  0  0  0
    9.0054   -3.3990   -1.4560 H   0  0  0  0  0  0  0  0  0  0  0  0
    7.9634   -2.1602   -2.0515 H   0  0  0  0  0  0  0  0  0  0  0  0
    7.4279   -3.8395   -2.0968 H   0  0  0  0  0  0  0  0  0  0  0  0
    6.3099   -0.7816    2.0223 H   0  0  0  0  0  0  0  0  0  0  0  0
    5.3201   -2.6081    3.3708 H   0  0  0  0  0  0  0  0  0  0  0  0
    7.1272   -4.9652    2.7070 H   0  0  0  0  0  0  0  0  0  0  0  0
    6.5950   -5.8312    1.2833 H   0  0  0  0  0  0  0  0  0  0  0  0
    4.7747   -5.4943    0.1032 H   0  0  0  0  0  0  0  0  0  0  0  0
    5.3251   -3.9541   -1.3341 H   0  0  0  0  0  0  0  0  0  0  0  0
    4.5931   -2.8882   -4.7121 H   0  0  0  0  0  0  0  0  0  0  0  0
    3.6181   -4.2217   -4.1152 H   0  0  0  0  0  0  0  0  0  0  0  0
    5.2870   -4.0532   -3.5851 H   0  0  0  0  0  0  0  0  0  0  0  0
    2.9014   -1.1417   -3.9662 H   0  0  0  0  0  0  0  0  0  0  0  0
    2.2322   -1.2940   -2.3537 H   0  0  0  0  0  0  0  0  0  0  0  0
    1.9012   -2.5399   -3.5410 H   0  0  0  0  0  0  0  0  0  0  0  0
    5.9381   -1.9370   -2.5978 H   0  0  0  0  0  0  0  0  0  0  0  0
    4.8374   -0.6356   -2.2847 H   0  0  0  0  0  0  0  0  0  0  0  0
    3.0902   -1.0048   -0.5086 H   0  0  0  0  0  0  0  0  0  0  0  0
    4.3744   -0.0979    0.2272 H   0  0  0  0  0  0  0  0  0  0  0  0
    3.6307   -1.4831    1.0436 H   0  0  0  0  0  0  0  0  0  0  0  0
  1  2  1  0
  1 20  1  0
  1 21  1  0
  1 22  1  0
  2  8  1  0
  2  3  2  0
  3 18  1  0
  3  4  1  0
  4  5  2  0
  4 23  1  0
  5  6  1  0
  5 24  1  0
  6 11  1  0
  6  7  1  0
  6 10  1  1
  7  8  1  0
  7 25  1  0
  7 26  1  0
  8  9  2  0
 10 11  1  0
 11 12  1  0
 11 27  1  6
 12 18  1  0
 12 13  1  0
 12 28  1  6
 13 14  1  0
 14 15  1  0
 14 16  1  0
 14 17  1  0
 15 29  1  0
 15 30  1  0
 15 31  1  0
 16 32  1  0
 16 33  1  0
 16 34  1  0
 17 18  1  0
 17 35  1  0
 17 36  1  0
 18 19  1  1
 19 37  1  0
 19 38  1  0
 19 39  1  0
M  END
>  <i_m_ct_stereo_status>  (170) 
1

>  <s_m_source_file>  (170) 
/var/tmp/pbs.5076255.sched01/tmp2djcgp0g/84b3bpyveh.sdf

>  <i_m_source_file_index>  (170) 
14

>  <i_lp_mmshare_version>  (170) 
48012

>  <i_f3d_flags>  (170) 
0

>  <s_epik_input>  (170) 
W0NIMl0xQyg9TylDKFtDSDNdKT1DKFtDSF09W0NIXTIpW0NAXShbQ0gzXSkoW0NASF0zW0NAQEhdKEMxMjQpTzQpW0NIMl1DKE8zKShbQ0gzXSlbQ0gzXQ==

>  <s_epik_cmdline>  (170) 
J2VwaWtfcHl0aG9uJywgJy1waHQnLCAnMi4wJywgJy1waCcsICc3LjAnLCAnLXRuJywgJzgnLCAnLW1hJywgJzIwMCcsICctaW1hZScsICc8aW5maWxlLm1hZT4nLCAnLW9tYWUnLCAnPG91dGZpbGUubWFlPic=

>  <r_lp_tautomer_probability>  (170) 
1

>  <r_epik_Ionization_Penalty>  (170) 
4.55849e-13

>  <r_epik_Ionization_Penalty_Charging>  (170) 
0

>  <r_epik_Ionization_Penalty_Neutral>  (170) 
4.55849e-13

>  <r_epik_State_Penalty>  (170) 
-0

>  <r_epik_Charging_Adjusted_Penalty>  (170) 
0

>  <i_epik_Tot_Q>  (170) 
0

>  <i_epik_Tot_abs_Q>  (170) 
0

>  <s_lp_Force_Field>  (170) 
OPLS3e

>  <r_lp_Energy>  (170) 
104.288

>  <b_lp_Chiralities_Consistent>  (170) 
1

>  <s_lp_Variant>  (170) 
59:0-1

>  <s_i_glide_gridfile>  (170) 
pfpi4k_grid

>  <i_i_glide_lignum>  (170) 
14

>  <i_i_glide_rotatable_bonds>  (170) 
0

>  <r_i_docking_score>  (170) 
-3.57178

>  <r_i_glide_ligand_efficiency>  (170) 
-0.187988

>  <r_i_glide_ligand_efficiency_sa>  (170) 
-0.501629

>  <r_i_glide_ligand_efficiency_ln>  (170) 
-0.905523

>  <r_i_glide_gscore>  (170) 
-3.57178

>  <r_i_glide_lipo>  (170) 
-0.642115

>  <r_i_glide_hbond>  (170) 
-0.0034698

>  <r_i_glide_metal>  (170) 
-0

>  <r_i_glide_rewards>  (170) 
-1.83075

>  <r_i_glide_evdw>  (170) 
-24.6714

>  <r_i_glide_ecoul>  (170) 
0.920857

>  <r_i_glide_erotb>  (170) 
0

>  <r_i_glide_esite>  (170) 
0

>  <r_i_glide_emodel>  (170) 
-28.2977

>  <r_i_glide_energy>  (170) 
-23.7506

>  <r_i_glide_einternal>  (170) 
0

>  <r_i_glide_intrahb_reward>  (170) 
-0

>  <i_i_glide_confnum>  (170) 
1

>  <i_i_glide_posenum>  (170) 
40

>  <r_i_glide_eff_state_penalty>  (170) 
0

>  <ligand_id>  (170) 
59

>  <original_smiles>  (170) 
CC1=C2C=CC3(CC1=O)OC3C1OC(C)(C)CC21C

>  <smiles>  (170) 
[H]C1=C([H])C23OC2([H])C2([H])OC(C([H])([H])[H])(C([H])([H])[H])C([H])([H])C2(C([H])([H])[H])C1=C(C([H])([H])[H])C(=O)C3([H])[H]

$$$$
59:0:1
     RDKit          3D

 39 42  0  0  1  0  0  0  0  0999 V2000
    3.2098   -4.9992    0.8315 C   0  0  0  0  0  0  0  0  0  0  0  0
    4.1333   -3.9670    1.4523 C   0  0  0  0  0  0  0  0  0  0  0  0
    5.1773   -3.3773    0.7820 C   0  0  0  0  0  0  0  0  0  0  0  0
    6.1587   -2.6422    1.5531 C   0  0  0  0  0  0  0  0  0  0  0  0
    5.7809   -1.4902    2.1083 C   0  0  0  0  0  0  0  0  0  0  0  0
    4.3603   -1.1239    2.0538 C   0  0  1  0  0  0  0  0  0  0  0  0
    3.5433   -1.8911    3.0681 C   0  0  0  0  0  0  0  0  0  0  0  0
    3.6110   -3.4309    2.7771 C   0  0  0  0  0  0  0  0  0  0  0  0
    3.1240   -4.1674    3.6337 O   0  0  0  0  0  0  0  0  0  0  0  0
    4.1823    0.1426    1.4018 O   0  0  0  0  0  0  0  0  0  0  0  0
    3.4595   -0.9272    0.8139 C   0  0  1  0  0  0  0  0  0  0  0  0
    3.7213   -1.7727   -0.4442 C   0  0  1  0  0  0  0  0  0  0  0  0
    3.4316   -1.3056   -1.7440 O   0  0  0  0  0  0  0  0  0  0  0  0
    3.5437   -2.4547   -2.5952 C   0  0  0  0  0  0  0  0  0  0  0  0
    2.1487   -3.0577   -2.8234 C   0  0  0  0  0  0  0  0  0  0  0  0
    4.0842   -1.9664   -3.9415 C   0  0  0  0  0  0  0  0  0  0  0  0
    4.4805   -3.4537   -1.8329 C   0  0  0  0  0  0  0  0  0  0  0  0
    4.9554   -2.6757   -0.5936 C   0  0  2  0  0  0  0  0  0  0  0  0
    6.1998   -1.8650   -1.0557 C   0  0  0  0  0  0  0  0  0  0  0  0
    2.8703   -5.7067    1.5828 H   0  0  0  0  0  0  0  0  0  0  0  0
    3.7531   -5.5985    0.1041 H   0  0  0  0  0  0  0  0  0  0  0  0
    2.3412   -4.5487    0.3631 H   0  0  0  0  0  0  0  0  0  0  0  0
    7.1864   -2.9687    1.5837 H   0  0  0  0  0  0  0  0  0  0  0  0
    6.4608   -0.8464    2.6463 H   0  0  0  0  0  0  0  0  0  0  0  0
    3.9227   -1.6961    4.0748 H   0  0  0  0  0  0  0  0  0  0  0  0
    2.5027   -1.5654    3.0424 H   0  0  0  0  0  0  0  0  0  0  0  0
    2.3922   -0.7808    0.9745 H   0  0  0  0  0  0  0  0  0  0  0  0
    2.8967   -2.4729   -0.3028 H   0  0  0  0  0  0  0  0  0  0  0  0
    2.1889   -3.8924   -3.5153 H   0  0  0  0  0  0  0  0  0  0  0  0
    1.4775   -2.3198   -3.2559 H   0  0  0  0  0  0  0  0  0  0  0  0
    1.6821   -3.4109   -1.9064 H   0  0  0  0  0  0  0  0  0  0  0  0
    4.2498   -2.8061   -4.6149 H   0  0  0  0  0  0  0  0  0  0  0  0
    5.0139   -1.4134   -3.8493 H   0  0  0  0  0  0  0  0  0  0  0  0
    3.3647   -1.2956   -4.4150 H   0  0  0  0  0  0  0  0  0  0  0  0
    3.9070   -4.3225   -1.5508 H   0  0  0  0  0  0  0  0  0  0  0  0
    5.3014   -3.8185   -2.4507 H   0  0  0  0  0  0  0  0  0  0  0  0
    6.0785   -1.4654   -2.0546 H   0  0  0  0  0  0  0  0  0  0  0  0
    7.0870   -2.4988   -1.0835 H   0  0  0  0  0  0  0  0  0  0  0  0
    6.4001   -0.9986   -0.4247 H   0  0  0  0  0  0  0  0  0  0  0  0
  1  2  1  0
  1 20  1  0
  1 21  1  0
  1 22  1  0
  2  8  1  0
  2  3  2  0
  3 18  1  0
  3  4  1  0
  4  5  2  0
  4 23  1  0
  5  6  1  0
  5 24  1  0
  6 11  1  0
  6  7  1  0
  6 10  1  1
  7  8  1  0
  7 25  1  0
  7 26  1  0
  8  9  2  0
 10 11  1  0
 11 12  1  0
 11 27  1  1
 12 18  1  0
 12 13  1  0
 12 28  1  1
 13 14  1  0
 14 15  1  0
 14 16  1  0
 14 17  1  0
 15 29  1  0
 15 30  1  0
 15 31  1  0
 16 32  1  0
 16 33  1  0
 16 34  1  0
 17 18  1  0
 17 35  1  0
 17 36  1  0
 18 19  1  6
 19 37  1  0
 19 38  1  0
 19 39  1  0
M  END
>  <i_m_ct_stereo_status>  (171) 
1

>  <s_m_source_file>  (171) 
/var/tmp/pbs.5076255.sched01/tmp2djcgp0g/84b3bpyveh.sdf

>  <i_m_source_file_index>  (171) 
14

>  <i_lp_mmshare_version>  (171) 
48012

>  <i_f3d_flags>  (171) 
0

>  <s_epik_input>  (171) 
W0NIMl0xQyg9TylDKFtDSDNdKT1DKFtDSF09W0NIXTIpW0NAXShbQ0gzXSkoW0NASF0zW0NAQEhdKEMxMjQpTzQpW0NIMl1DKE8zKShbQ0gzXSlbQ0gzXQ==

>  <s_epik_cmdline>  (171) 
J2VwaWtfcHl0aG9uJywgJy1waHQnLCAnMi4wJywgJy1waCcsICc3LjAnLCAnLXRuJywgJzgnLCAnLW1hJywgJzIwMCcsICctaW1hZScsICc8aW5maWxlLm1hZT4nLCAnLW9tYWUnLCAnPG91dGZpbGUubWFlPic=

>  <r_lp_tautomer_probability>  (171) 
1

>  <r_epik_Ionization_Penalty>  (171) 
4.55849e-13

>  <r_epik_Ionization_Penalty_Charging>  (171) 
0

>  <r_epik_Ionization_Penalty_Neutral>  (171) 
4.55849e-13

>  <r_epik_State_Penalty>  (171) 
-0

>  <r_epik_Charging_Adjusted_Penalty>  (171) 
0

>  <i_epik_Tot_Q>  (171) 
0

>  <i_epik_Tot_abs_Q>  (171) 
0

>  <s_lp_Force_Field>  (171) 
OPLS3e

>  <r_lp_Energy>  (171) 
104.288

>  <b_lp_Chiralities_Consistent>  (171) 
1

>  <s_lp_Variant>  (171) 
59:0-1

>  <s_i_glide_gridfile>  (171) 
pfpi4k_grid

>  <i_i_glide_lignum>  (171) 
14

>  <i_i_glide_rotatable_bonds>  (171) 
0

>  <r_i_docking_score>  (171) 
-3.32088

>  <r_i_glide_ligand_efficiency>  (171) 
-0.174783

>  <r_i_glide_ligand_efficiency_sa>  (171) 
-0.466392

>  <r_i_glide_ligand_efficiency_ln>  (171) 
-0.841915

>  <r_i_glide_gscore>  (171) 
-3.32088

>  <r_i_glide_lipo>  (171) 
-0.510454

>  <r_i_glide_hbond>  (171) 
-0.00168361

>  <r_i_glide_metal>  (171) 
-0

>  <r_i_glide_rewards>  (171) 
-1.63518

>  <r_i_glide_evdw>  (171) 
-22.7746

>  <r_i_glide_ecoul>  (171) 
-0.232199

>  <r_i_glide_erotb>  (171) 
0

>  <r_i_glide_esite>  (171) 
0

>  <r_i_glide_emodel>  (171) 
-27.1867

>  <r_i_glide_energy>  (171) 
-23.0068

>  <r_i_glide_einternal>  (171) 
0

>  <r_i_glide_intrahb_reward>  (171) 
-0

>  <i_i_glide_confnum>  (171) 
1

>  <i_i_glide_posenum>  (171) 
14

>  <r_i_glide_eff_state_penalty>  (171) 
0

>  <ligand_id>  (171) 
59

>  <original_smiles>  (171) 
CC1=C2C=CC3(CC1=O)OC3C1OC(C)(C)CC21C

>  <smiles>  (171) 
[H]C1=C([H])C23OC2([H])C2([H])OC(C([H])([H])[H])(C([H])([H])[H])C([H])([H])C2(C([H])([H])[H])C1=C(C([H])([H])[H])C(=O)C3([H])[H]

$$$$
59:0:2
     RDKit          3D

 39 42  0  0  1  0  0  0  0  0999 V2000
    7.4630   -3.6447   -0.3794 C   0  0  0  0  0  0  0  0  0  0  0  0
    6.6265   -3.4413    0.8619 C   0  0  0  0  0  0  0  0  0  0  0  0
    5.7822   -2.3743    1.0317 C   0  0  0  0  0  0  0  0  0  0  0  0
    5.2749   -2.1195    2.3654 C   0  0  0  0  0  0  0  0  0  0  0  0
    4.3907   -2.9769    2.8640 C   0  0  0  0  0  0  0  0  0  0  0  0
    4.1055   -4.2119    2.1178 C   0  0  1  0  0  0  0  0  0  0  0  0
    5.2035   -5.2346    2.2898 C   0  0  0  0  0  0  0  0  0  0  0  0
    6.5581   -4.6877    1.7278 C   0  0  0  0  0  0  0  0  0  0  0  0
    7.5505   -5.3743    1.9592 O   0  0  0  0  0  0  0  0  0  0  0  0
    2.7038   -4.3150    1.7927 O   0  0  0  0  0  0  0  0  0  0  0  0
    3.5778   -4.3753    0.6727 C   0  0  1  0  0  0  0  0  0  0  0  0
    3.9695   -3.3336   -0.3859 C   0  0  1  0  0  0  0  0  0  0  0  0
    3.1408   -3.0422   -1.4903 O   0  0  0  0  0  0  0  0  0  0  0  0
    3.9418   -2.2399   -2.3751 C   0  0  0  0  0  0  0  0  0  0  0  0
    4.4920   -3.1647   -3.4713 C   0  0  0  0  0  0  0  0  0  0  0  0
    3.0348   -1.1988   -3.0516 C   0  0  0  0  0  0  0  0  0  0  0  0
    5.0799   -1.6243   -1.4818 C   0  0  0  0  0  0  0  0  0  0  0  0
    4.7024   -2.0267   -0.0391 C   0  0  2  0  0  0  0  0  0  0  0  0
    3.7151   -0.9380    0.4712 C   0  0  0  0  0  0  0  0  0  0  0  0
    8.3839   -4.1800   -0.1508 H   0  0  0  0  0  0  0  0  0  0  0  0
    7.7714   -2.6928   -0.8100 H   0  0  0  0  0  0  0  0  0  0  0  0
    6.8946   -4.2075   -1.1116 H   0  0  0  0  0  0  0  0  0  0  0  0
    5.5293   -1.2067    2.8876 H   0  0  0  0  0  0  0  0  0  0  0  0
    3.9159   -2.8288    3.8207 H   0  0  0  0  0  0  0  0  0  0  0  0
    5.3218   -5.4708    3.3509 H   0  0  0  0  0  0  0  0  0  0  0  0
    4.9456   -6.1616    1.7773 H   0  0  0  0  0  0  0  0  0  0  0  0
    3.5623   -5.3751    0.2476 H   0  0  0  0  0  0  0  0  0  0  0  0
    4.7342   -3.9325   -0.8816 H   0  0  0  0  0  0  0  0  0  0  0  0
    5.0018   -2.5592   -4.2098 H   0  0  0  0  0  0  0  0  0  0  0  0
    3.6854   -3.6942   -3.9786 H   0  0  0  0  0  0  0  0  0  0  0  0
    5.1859   -3.9116   -3.0864 H   0  0  0  0  0  0  0  0  0  0  0  0
    3.5899   -0.5139   -3.6911 H   0  0  0  0  0  0  0  0  0  0  0  0
    2.4921   -0.5995   -2.3284 H   0  0  0  0  0  0  0  0  0  0  0  0
    2.2850   -1.6993   -3.6655 H   0  0  0  0  0  0  0  0  0  0  0  0
    6.0357   -2.0197   -1.8053 H   0  0  0  0  0  0  0  0  0  0  0  0
    5.1588   -0.5445   -1.6016 H   0  0  0  0  0  0  0  0  0  0  0  0
    3.0149   -0.6595   -0.3033 H   0  0  0  0  0  0  0  0  0  0  0  0
    4.2404   -0.0326    0.7799 H   0  0  0  0  0  0  0  0  0  0  0  0
    3.0764   -1.2667    1.2905 H   0  0  0  0  0  0  0  0  0  0  0  0
  1  2  1  0
  1 20  1  0
  1 21  1  0
  1 22  1  0
  2  8  1  0
  2  3  2  0
  3 18  1  0
  3  4  1  0
  4  5  2  0
  4 23  1  0
  5  6  1  0
  5 24  1  0
  6 11  1  0
  6  7  1  0
  6 10  1  1
  7  8  1  0
  7 25  1  0
  7 26  1  0
  8  9  2  0
 10 11  1  0
 11 12  1  0
 11 27  1  6
 12 18  1  0
 12 13  1  0
 12 28  1  6
 13 14  1  0
 14 15  1  0
 14 16  1  0
 14 17  1  0
 15 29  1  0
 15 30  1  0
 15 31  1  0
 16 32  1  0
 16 33  1  0
 16 34  1  0
 17 18  1  0
 17 35  1  0
 17 36  1  0
 18 19  1  1
 19 37  1  0
 19 38  1  0
 19 39  1  0
M  END
>  <i_m_ct_stereo_status>  (172) 
1

>  <s_m_source_file>  (172) 
/var/tmp/pbs.5076255.sched01/tmp2djcgp0g/84b3bpyveh.sdf

>  <i_m_source_file_index>  (172) 
14

>  <i_lp_mmshare_version>  (172) 
48012

>  <i_f3d_flags>  (172) 
0

>  <s_epik_input>  (172) 
W0NIMl0xQyg9TylDKFtDSDNdKT1DKFtDSF09W0NIXTIpW0NAXShbQ0gzXSkoW0NASF0zW0NAQEhdKEMxMjQpTzQpW0NIMl1DKE8zKShbQ0gzXSlbQ0gzXQ==

>  <s_epik_cmdline>  (172) 
J2VwaWtfcHl0aG9uJywgJy1waHQnLCAnMi4wJywgJy1waCcsICc3LjAnLCAnLXRuJywgJzgnLCAnLW1hJywgJzIwMCcsICctaW1hZScsICc8aW5maWxlLm1hZT4nLCAnLW9tYWUnLCAnPG91dGZpbGUubWFlPic=

>  <r_lp_tautomer_probability>  (172) 
1

>  <r_epik_Ionization_Penalty>  (172) 
4.55849e-13

>  <r_epik_Ionization_Penalty_Charging>  (172) 
0

>  <r_epik_Ionization_Penalty_Neutral>  (172) 
4.55849e-13

>  <r_epik_State_Penalty>  (172) 
-0

>  <r_epik_Charging_Adjusted_Penalty>  (172) 
0

>  <i_epik_Tot_Q>  (172) 
0

>  <i_epik_Tot_abs_Q>  (172) 
0

>  <s_lp_Force_Field>  (172) 
OPLS3e

>  <r_lp_Energy>  (172) 
104.288

>  <b_lp_Chiralities_Consistent>  (172) 
1

>  <s_lp_Variant>  (172) 
59:0-1

>  <s_i_glide_gridfile>  (172) 
pfpi4k_grid

>  <i_i_glide_lignum>  (172) 
14

>  <i_i_glide_rotatable_bonds>  (172) 
0

>  <r_i_docking_score>  (172) 
-3.21718

>  <r_i_glide_ligand_efficiency>  (172) 
-0.169325

>  <r_i_glide_ligand_efficiency_sa>  (172) 
-0.451828

>  <r_i_glide_ligand_efficiency_ln>  (172) 
-0.815624

>  <r_i_glide_gscore>  (172) 
-3.21718

>  <r_i_glide_lipo>  (172) 
-0.649734

>  <r_i_glide_hbond>  (172) 
0

>  <r_i_glide_metal>  (172) 
-0

>  <r_i_glide_rewards>  (172) 
-1.72709

>  <r_i_glide_evdw>  (172) 
-22.2253

>  <r_i_glide_ecoul>  (172) 
1.80609

>  <r_i_glide_erotb>  (172) 
0

>  <r_i_glide_esite>  (172) 
0

>  <r_i_glide_emodel>  (172) 
-24.4097

>  <r_i_glide_energy>  (172) 
-20.4192

>  <r_i_glide_einternal>  (172) 
0

>  <r_i_glide_intrahb_reward>  (172) 
-0

>  <i_i_glide_confnum>  (172) 
1

>  <i_i_glide_posenum>  (172) 
39

>  <r_i_glide_eff_state_penalty>  (172) 
0

>  <ligand_id>  (172) 
59

>  <original_smiles>  (172) 
CC1=C2C=CC3(CC1=O)OC3C1OC(C)(C)CC21C

>  <smiles>  (172) 
[H]C1=C([H])C23OC2([H])C2([H])OC(C([H])([H])[H])(C([H])([H])[H])C([H])([H])C2(C([H])([H])[H])C1=C(C([H])([H])[H])C(=O)C3([H])[H]

$$$$
60:3:0
     RDKit          3D

 78 86  0  0  1  0  0  0  0  0999 V2000
    0.9184   -8.5516    8.7831 C   0  0  0  0  0  0  0  0  0  0  0  0
    1.4581   -8.6200    7.3493 C   0  0  0  0  0  0  0  0  0  0  0  0
    0.5049   -8.0703    6.2811 C   0  0  0  0  0  0  0  0  0  0  0  0
    0.2217   -8.7102    5.0586 C   0  0  0  0  0  0  0  0  0  0  0  0
   -0.7607   -8.2875    3.8973 C   0  0  0  0  0  0  0  0  0  0  0  0
   -0.0854   -7.6500    2.5764 C   0  0  0  0  0  0  0  0  0  0  0  0
    1.3806   -7.1767    2.8101 C   0  0  1  0  0  0  0  0  0  0  0  0
    1.9094   -5.8161    2.2324 C   0  0  0  0  0  0  0  0  0  0  0  0
    2.4135   -5.7705    0.9207 C   0  0  0  0  0  0  0  0  0  0  0  0
    2.9848   -4.6010    0.4125 C   0  0  0  0  0  0  0  0  0  0  0  0
    3.0411   -3.4405    1.2102 C   0  0  0  0  0  0  0  0  0  0  0  0
    2.5313   -3.4451    2.5245 C   0  0  0  0  0  0  0  0  0  0  0  0
    2.0019   -4.6211    3.1102 C   0  0  0  0  0  0  0  0  0  0  0  0
    1.4342   -4.5904    4.4533 N   0  0  0  0  0  0  0  0  0  0  0  0
    2.1218   -4.6700    5.8114 C   0  0  1  0  0  0  0  0  0  0  0  0
    2.4244   -3.3105    6.5148 C   0  0  2  0  0  0  0  0  0  0  0  0
    1.1770   -2.9569    7.3187 C   0  0  1  0  0  0  0  0  0  0  0  0
    0.6519   -1.7005    6.6073 C   0  0  0  0  0  0  0  0  0  0  0  0
   -0.4455   -1.1720    6.8514 O   0  0  0  0  0  0  0  0  0  0  0  0
    1.5524   -1.2509    5.7316 N   0  0  0  0  0  0  0  0  0  0  0  0
    1.4009   -0.0024    4.9792 C   0  0  0  0  0  0  0  0  0  0  0  0
    2.6182   -2.0628    5.6611 C   0  0  0  0  0  0  0  0  0  0  0  0
    3.6721   -1.8359    5.0540 O   0  0  0  0  0  0  0  0  0  0  0  0
    0.3075   -4.2378    7.3561 C   0  0  1  0  0  0  0  0  0  0  0  0
   -0.3343   -4.3241    8.7649 C   0  0  0  0  0  0  0  0  0  0  0  0
   -0.1606   -5.3557    9.4619 O   0  0  0  0  0  0  0  0  0  0  0  0
   -0.9874   -3.3216    9.1265 O   0  0  0  0  0  0  0  0  0  0  0  0
   -0.7654   -4.4083    6.2452 C   0  0  0  0  0  0  0  0  0  0  0  0
   -0.4519   -5.7788    5.5651 C   0  0  2  0  0  0  0  0  0  0  0  0
    0.1577   -6.5783    6.6378 C   0  0  2  0  0  0  0  0  0  0  0  0
    1.2383   -5.4238    6.9809 C   0  0  1  0  0  0  0  0  0  0  0  0
    0.6367   -5.7658    4.4446 C   0  0  2  0  0  0  0  0  0  0  0  0
    1.7808   -6.8975    4.1990 C   0  0  1  0  0  0  0  0  0  0  0  0
    2.0709   -8.2937    3.5589 C   0  0  2  0  0  0  0  0  0  0  0  0
    3.3746   -8.7374    3.0433 N   0  0  0  0  0  0  0  0  0  0  0  0
    4.4474   -7.7557    2.8667 C   0  0  0  0  0  0  0  0  0  0  0  0
    3.2635   -9.5348    1.8164 C   0  0  0  0  0  0  0  0  0  0  0  0
    1.3223   -9.4561    4.2756 C   0  0  1  0  0  0  0  0  0  0  0  0
    2.1411  -10.5516    5.0343 C   0  0  0  0  0  0  0  0  0  0  0  0
    2.7754  -11.6772    4.1932 C   0  0  0  0  0  0  0  0  0  0  0  0
    1.5988   -9.0834    9.4490 H   0  0  0  0  0  0  0  0  0  0  0  0
   -0.0593   -9.0266    8.8708 H   0  0  0  0  0  0  0  0  0  0  0  0
    0.8526   -7.5363    9.1571 H   0  0  0  0  0  0  0  0  0  0  0  0
    2.4192   -8.1114    7.2688 H   0  0  0  0  0  0  0  0  0  0  0  0
    1.6218   -9.6776    7.2360 H   0  0  0  0  0  0  0  0  0  0  0  0
   -1.2015   -9.2257    3.5782 H   0  0  0  0  0  0  0  0  0  0  0  0
   -1.6534   -7.7809    4.2355 H   0  0  0  0  0  0  0  0  0  0  0  0
   -0.0602   -8.4113    1.7933 H   0  0  0  0  0  0  0  0  0  0  0  0
   -0.7056   -6.8538    2.1489 H   0  0  0  0  0  0  0  0  0  0  0  0
    2.4139   -6.6614    0.3157 H   0  0  0  0  0  0  0  0  0  0  0  0
    3.4083   -4.5886   -0.5732 H   0  0  0  0  0  0  0  0  0  0  0  0
    3.4535   -2.5285    0.8000 H   0  0  0  0  0  0  0  0  0  0  0  0
    2.5446   -2.5162    3.0622 H   0  0  0  0  0  0  0  0  0  0  0  0
    3.1031   -5.1424    5.7114 H   0  0  0  0  0  0  0  0  0  0  0  0
    1.4753   -2.6589    8.3267 H   0  0  0  0  0  0  0  0  0  0  0  0
    2.2183    0.1754    4.2794 H   0  0  0  0  0  0  0  0  0  0  0  0
    1.3574    0.8523    5.6545 H   0  0  0  0  0  0  0  0  0  0  0  0
    0.4797   -0.0159    4.3971 H   0  0  0  0  0  0  0  0  0  0  0  0
    3.2748   -3.4203    7.1866 H   0  0  0  0  0  0  0  0  0  0  0  0
   -1.7654   -4.4133    6.6805 H   0  0  0  0  0  0  0  0  0  0  0  0
   -0.7674   -3.6053    5.5069 H   0  0  0  0  0  0  0  0  0  0  0  0
   -1.4127   -6.1530    5.2440 H   0  0  0  0  0  0  0  0  0  0  0  0
   -0.5817   -6.6814    7.4320 H   0  0  0  0  0  0  0  0  0  0  0  0
    1.8638   -5.7019    7.8306 H   0  0  0  0  0  0  0  0  0  0  0  0
   -0.0267   -5.5544    3.6119 H   0  0  0  0  0  0  0  0  0  0  0  0
    2.7722   -6.6355    4.5293 H   0  0  0  0  0  0  0  0  0  0  0  0
    5.3723   -8.2581    2.5761 H   0  0  0  0  0  0  0  0  0  0  0  0
    4.6564   -7.2002    3.7833 H   0  0  0  0  0  0  0  0  0  0  0  0
    4.2433   -7.0513    2.0666 H   0  0  0  0  0  0  0  0  0  0  0  0
    4.2274   -9.9985    1.6060 H   0  0  0  0  0  0  0  0  0  0  0  0
    2.9729   -8.9683    0.9322 H   0  0  0  0  0  0  0  0  0  0  0  0
    2.5567  -10.3602    1.9097 H   0  0  0  0  0  0  0  0  0  0  0  0
    0.8244  -10.0300    3.4914 H   0  0  0  0  0  0  0  0  0  0  0  0
    2.9335  -10.1074    5.6372 H   0  0  0  0  0  0  0  0  0  0  0  0
    1.4439  -11.0743    5.6891 H   0  0  0  0  0  0  0  0  0  0  0  0
    3.1263  -12.4850    4.8365 H   0  0  0  0  0  0  0  0  0  0  0  0
    3.6603  -11.3379    3.6539 H   0  0  0  0  0  0  0  0  0  0  0  0
    2.0692  -12.1084    3.4822 H   0  0  0  0  0  0  0  0  0  0  0  0
  1  2  1  0
  1 41  1  0
  1 42  1  0
  1 43  1  0
  2  3  1  0
  2 44  1  0
  2 45  1  0
  3 30  1  0
  3  4  2  3
  4 38  1  0
  4  5  1  0
  5  6  1  0
  5 46  1  0
  5 47  1  0
  7  6  1  1
  6 48  1  0
  6 49  1  0
  7 33  1  0
  7 34  1  0
  7  8  1  0
  8 13  2  0
  8  9  1  0
  9 10  2  0
  9 50  1  0
 10 11  1  0
 10 51  1  0
 11 12  2  0
 11 52  1  0
 12 13  1  0
 12 53  1  0
 13 14  1  0
 14 32  1  0
 14 15  1  0
 15 31  1  0
 15 54  1  6
 15 16  1  0
 16 17  1  0
 16 59  1  1
 16 22  1  0
 17 18  1  0
 17 24  1  0
 17 55  1  1
 18 19  2  0
 18 20  1  0
 20 22  1  0
 20 21  1  0
 21 56  1  0
 21 57  1  0
 21 58  1  0
 22 23  2  0
 24 31  1  0
 24 25  1  1
 24 28  1  0
 25 26  2  0
 25 27  1  0
 28 29  1  0
 28 60  1  0
 28 61  1  0
 29 30  1  0
 29 32  1  0
 29 62  1  6
 30 31  1  0
 30 63  1  1
 31 64  1  1
 32 33  1  0
 32 65  1  6
 33 34  1  0
 33 66  1  6
 34 35  1  6
 34 38  1  0
 35 36  1  0
 35 37  1  0
 36 67  1  0
 36 68  1  0
 36 69  1  0
 37 70  1  0
 37 71  1  0
 37 72  1  0
 38 39  1  0
 38 73  1  6
 39 40  1  0
 39 74  1  0
 39 75  1  0
 40 76  1  0
 40 77  1  0
 40 78  1  0
M  CHG  1  27  -1
M  END
>  <i_m_ct_stereo_status>  (173) 
1

>  <s_m_source_file>  (173) 
/var/tmp/pbs.5076255.sched01/tmp2djcgp0g/84b3bpyveh.sdf

>  <i_m_source_file_index>  (173) 
18

>  <i_lp_mmshare_version>  (173) 
48012

>  <i_f3d_flags>  (173) 
0

>  <s_epik_input>  (173) 
W0NIM11bQ0gyXS9DMT1DKFxbQ0gyXVtDSDJdMilbQ0BIXShbQ0gyXVtDSDNdKVtDQF0zKE4oW0NIM10pW0NIM10pW0NAQEhdNFtDQEhdNVtDQEhdKFtDSDJdNilbQ0BASF0xW0NAQEhdN1tDQEBdNihDKD1PKVtPSF0pYyhjKFtPSF0pbihbQ0gzXSljOFtPSF0pYzhbQ0BASF03TjVjKGM5W0NAQF0yMzQpW2NIXVtjSF1bY0hdW2NIXTk=

>  <s_epik_cmdline>  (173) 
J2VwaWtfcHl0aG9uJywgJy1waHQnLCAnMi4wJywgJy1waCcsICc3LjAnLCAnLXRuJywgJzgnLCAnLW1hJywgJzIwMCcsICctaW1hZScsICc8aW5maWxlLm1hZT4nLCAnLW9tYWUnLCAnPG91dGZpbGUubWFlPic=

>  <r_lp_tautomer_probability>  (173) 
1

>  <r_epik_Ionization_Penalty>  (173) 
1.09211

>  <r_epik_Ionization_Penalty_Charging>  (173) 
0.000988962

>  <r_epik_Ionization_Penalty_Neutral>  (173) 
1.09112

>  <r_epik_State_Penalty>  (173) 
1.12434

>  <r_epik_Charging_Adjusted_Penalty>  (173) 
1.12533

>  <i_epik_Tot_Q>  (173) 
-1

>  <i_epik_Tot_abs_Q>  (173) 
1

>  <s_lp_Force_Field>  (173) 
OPLS3e

>  <r_lp_Energy>  (173) 
291.904

>  <b_lp_Chiralities_Consistent>  (173) 
1

>  <s_lp_Variant>  (173) 
60:0-4

>  <s_i_glide_gridfile>  (173) 
pfpi4k_grid

>  <i_i_glide_lignum>  (173) 
18

>  <i_i_glide_rotatable_bonds>  (173) 
4

>  <r_i_docking_score>  (173) 
-2.39208

>  <r_i_glide_ligand_efficiency>  (173) 
-0.0598019

>  <r_i_glide_ligand_efficiency_sa>  (173) 
-0.20452

>  <r_i_glide_ligand_efficiency_ln>  (173) 
-0.51016

>  <r_i_glide_gscore>  (173) 
-2.39208

>  <r_i_glide_lipo>  (173) 
0

>  <r_i_glide_hbond>  (173) 
-0.20217

>  <r_i_glide_metal>  (173) 
-0

>  <r_i_glide_rewards>  (173) 
-0.000595771

>  <r_i_glide_evdw>  (173) 
-25.0836

>  <r_i_glide_ecoul>  (173) 
-6.02001

>  <r_i_glide_erotb>  (173) 
0

>  <r_i_glide_esite>  (173) 
-0.0321314

>  <r_i_glide_emodel>  (173) 
-36.24

>  <r_i_glide_energy>  (173) 
-31.1036

>  <r_i_glide_einternal>  (173) 
1.37074

>  <r_i_glide_intrahb_reward>  (173) 
-0

>  <i_i_glide_confnum>  (173) 
2

>  <i_i_glide_posenum>  (173) 
7

>  <r_i_glide_eff_state_penalty>  (173) 
0

>  <ligand_id>  (173) 
60

>  <original_smiles>  (173) 
CCC1=C2CCC34c5ccccc5N5C6c7c(c(O)n(C)c7O)C7(C(=O)O)CC(C1C67)C5C3C4(N(C)C)C2CC

>  <smiles>  (173) 
[H]c1c([H])c([H])c2c(c1[H])N1C3([H])C4([H])C(=O)N(C([H])([H])[H])C(=O)C4([H])C4(C(=O)[O-])C([H])([H])C5([H])C([H])(C(C([H])([H])C([H])([H])[H])=C6C([H])([H])C([H])([H])C27C([H])(C15[H])C7(N(C([H])([H])[H])C([H])([H])[H])C6([H])C([H])([H])C([H])([H])[H])C34[H]

$$$$
60:3:1
     RDKit          3D

 78 86  0  0  1  0  0  0  0  0999 V2000
   -0.5155   -0.3898    4.4639 C   0  0  0  0  0  0  0  0  0  0  0  0
    0.5743   -0.9421    3.5157 C   0  0  0  0  0  0  0  0  0  0  0  0
    1.8258   -1.4392    4.2522 C   0  0  0  0  0  0  0  0  0  0  0  0
    3.1550   -1.2017    3.8543 C   0  0  0  0  0  0  0  0  0  0  0  0
    4.5179   -1.6693    4.4959 C   0  0  0  0  0  0  0  0  0  0  0  0
    5.2803   -2.9042    3.7803 C   0  0  0  0  0  0  0  0  0  0  0  0
    4.3570   -3.6918    2.7996 C   0  0  1  0  0  0  0  0  0  0  0  0
    4.3721   -5.2640    2.7270 C   0  0  0  0  0  0  0  0  0  0  0  0
    5.3196   -5.9209    1.9178 C   0  0  0  0  0  0  0  0  0  0  0  0
    5.2983   -7.3164    1.7762 C   0  0  0  0  0  0  0  0  0  0  0  0
    4.3389   -8.0758    2.4666 C   0  0  0  0  0  0  0  0  0  0  0  0
    3.3951   -7.4595    3.3013 C   0  0  0  0  0  0  0  0  0  0  0  0
    3.3437   -6.0551    3.4353 C   0  0  0  0  0  0  0  0  0  0  0  0
    2.3753   -5.4309    4.3448 N   0  0  0  0  0  0  0  0  0  0  0  0
    0.8999   -5.1022    4.1551 C   0  0  1  0  0  0  0  0  0  0  0  0
   -0.1109   -6.1543    4.6911 C   0  0  2  0  0  0  0  0  0  0  0  0
   -0.3629   -5.7989    6.1533 C   0  0  1  0  0  0  0  0  0  0  0  0
    0.2331   -6.9784    6.9073 C   0  0  0  0  0  0  0  0  0  0  0  0
    0.3269   -7.0203    8.1456 O   0  0  0  0  0  0  0  0  0  0  0  0
    0.5313   -7.9681    6.0612 N   0  0  0  0  0  0  0  0  0  0  0  0
    0.9953   -9.2943    6.4924 C   0  0  0  0  0  0  0  0  0  0  0  0
    0.3113   -7.6091    4.7913 C   0  0  0  0  0  0  0  0  0  0  0  0
    0.3439   -8.3459    3.7977 O   0  0  0  0  0  0  0  0  0  0  0  0
    0.2186   -4.3835    6.3905 C   0  0  1  0  0  0  0  0  0  0  0  0
   -0.7839   -3.5641    7.2583 C   0  0  0  0  0  0  0  0  0  0  0  0
   -0.4164   -3.0388    8.3226 O   0  0  0  0  0  0  0  0  0  0  0  0
   -1.9586   -3.4703    6.8196 O   0  0  0  0  0  0  0  0  0  0  0  0
    1.7043   -4.2929    6.8700 C   0  0  0  0  0  0  0  0  0  0  0  0
    2.4302   -3.4074    5.8136 C   0  0  2  0  0  0  0  0  0  0  0  0
    1.3741   -2.5208    5.2966 C   0  0  2  0  0  0  0  0  0  0  0  0
    0.3955   -3.7658    4.9741 C   0  0  1  0  0  0  0  0  0  0  0  0
    2.9568   -4.1532    4.5396 C   0  0  2  0  0  0  0  0  0  0  0  0
    2.9163   -3.5820    3.0107 C   0  0  1  0  0  0  0  0  0  0  0  0
    3.6367   -2.6541    1.9828 C   0  0  2  0  0  0  0  0  0  0  0  0
    3.6292   -2.8366    0.5060 N   0  0  0  0  0  0  0  0  0  0  0  0
    3.0947   -4.0885   -0.0360 C   0  0  0  0  0  0  0  0  0  0  0  0
    4.9325   -2.5837   -0.1032 C   0  0  0  0  0  0  0  0  0  0  0  0
    3.5357   -1.1407    2.3704 C   0  0  1  0  0  0  0  0  0  0  0  0
    2.7456   -0.1800    1.4476 C   0  0  0  0  0  0  0  0  0  0  0  0
    2.5360    1.2601    2.0122 C   0  0  0  0  0  0  0  0  0  0  0  0
   -1.2771    0.1177    3.8758 H   0  0  0  0  0  0  0  0  0  0  0  0
   -0.1067    0.3607    5.1433 H   0  0  0  0  0  0  0  0  0  0  0  0
   -1.0237   -1.1508    5.0649 H   0  0  0  0  0  0  0  0  0  0  0  0
    0.2208   -1.7893    2.9188 H   0  0  0  0  0  0  0  0  0  0  0  0
    0.7357   -0.1094    2.8491 H   0  0  0  0  0  0  0  0  0  0  0  0
    5.1870   -0.8204    4.3765 H   0  0  0  0  0  0  0  0  0  0  0  0
    4.5041   -1.7320    5.5749 H   0  0  0  0  0  0  0  0  0  0  0  0
    6.1013   -2.5111    3.1740 H   0  0  0  0  0  0  0  0  0  0  0  0
    5.7579   -3.5667    4.5092 H   0  0  0  0  0  0  0  0  0  0  0  0
    6.0349   -5.3459    1.3574 H   0  0  0  0  0  0  0  0  0  0  0  0
    6.0003   -7.8121    1.1295 H   0  0  0  0  0  0  0  0  0  0  0  0
    4.3497   -9.1523    2.3830 H   0  0  0  0  0  0  0  0  0  0  0  0
    2.7313   -8.0962    3.8581 H   0  0  0  0  0  0  0  0  0  0  0  0
    0.6706   -5.0259    3.0937 H   0  0  0  0  0  0  0  0  0  0  0  0
   -1.4440   -5.8318    6.3302 H   0  0  0  0  0  0  0  0  0  0  0  0
    1.2292   -9.9524    5.6556 H   0  0  0  0  0  0  0  0  0  0  0  0
    0.2356   -9.7929    7.0933 H   0  0  0  0  0  0  0  0  0  0  0  0
    1.8982   -9.2005    7.0979 H   0  0  0  0  0  0  0  0  0  0  0  0
   -1.0475   -6.0991    4.1335 H   0  0  0  0  0  0  0  0  0  0  0  0
    1.7899   -3.8302    7.8522 H   0  0  0  0  0  0  0  0  0  0  0  0
    2.2133   -5.2525    6.9726 H   0  0  0  0  0  0  0  0  0  0  0  0
    3.2014   -2.9009    6.3772 H   0  0  0  0  0  0  0  0  0  0  0  0
    0.9870   -1.9258    6.1240 H   0  0  0  0  0  0  0  0  0  0  0  0
   -0.5578   -3.4097    4.5769 H   0  0  0  0  0  0  0  0  0  0  0  0
    3.9369   -4.4298    4.9275 H   0  0  0  0  0  0  0  0  0  0  0  0
    2.1534   -4.0150    2.3788 H   0  0  0  0  0  0  0  0  0  0  0  0
    3.0835   -4.0593   -1.1268 H   0  0  0  0  0  0  0  0  0  0  0  0
    2.0688   -4.2545    0.2836 H   0  0  0  0  0  0  0  0  0  0  0  0
    3.6776   -4.9721    0.2175 H   0  0  0  0  0  0  0  0  0  0  0  0
    4.8399   -2.5803   -1.1862 H   0  0  0  0  0  0  0  0  0  0  0  0
    5.6840   -3.3387    0.1258 H   0  0  0  0  0  0  0  0  0  0  0  0
    5.3391   -1.6117    0.1665 H   0  0  0  0  0  0  0  0  0  0  0  0
    4.5512   -0.7568    2.2857 H   0  0  0  0  0  0  0  0  0  0  0  0
    3.2819   -0.0979    0.5057 H   0  0  0  0  0  0  0  0  0  0  0  0
    1.8134   -0.6454    1.1443 H   0  0  0  0  0  0  0  0  0  0  0  0
    1.8439    1.8270    1.3870 H   0  0  0  0  0  0  0  0  0  0  0  0
    3.4335    1.8500    2.0208 H   0  0  0  0  0  0  0  0  0  0  0  0
    2.1766    1.2817    3.0448 H   0  0  0  0  0  0  0  0  0  0  0  0
  1  2  1  0
  1 41  1  0
  1 42  1  0
  1 43  1  0
  2  3  1  0
  2 44  1  0
  2 45  1  0
  3 30  1  0
  3  4  2  3
  4 38  1  0
  4  5  1  0
  5  6  1  0
  5 46  1  0
  5 47  1  0
  7  6  1  1
  6 48  1  0
  6 49  1  0
  7 33  1  0
  7 34  1  0
  7  8  1  0
  8 13  2  0
  8  9  1  0
  9 10  2  0
  9 50  1  0
 10 11  1  0
 10 51  1  0
 11 12  2  0
 11 52  1  0
 12 13  1  0
 12 53  1  0
 13 14  1  0
 14 32  1  0
 14 15  1  0
 15 31  1  0
 15 54  1  6
 15 16  1  0
 16 17  1  0
 16 59  1  6
 16 22  1  0
 17 18  1  0
 17 24  1  0
 17 55  1  6
 18 19  2  0
 18 20  1  0
 20 22  1  0
 20 21  1  0
 21 56  1  0
 21 57  1  0
 21 58  1  0
 22 23  2  0
 24 31  1  0
 24 25  1  1
 24 28  1  0
 25 26  2  0
 25 27  1  0
 28 29  1  0
 28 60  1  0
 28 61  1  0
 29 30  1  0
 29 32  1  0
 29 62  1  1
 30 31  1  0
 30 63  1  1
 31 64  1  6
 32 33  1  0
 32 65  1  1
 33 34  1  0
 33 66  1  6
 34 35  1  6
 34 38  1  0
 35 36  1  0
 35 37  1  0
 36 67  1  0
 36 68  1  0
 36 69  1  0
 37 70  1  0
 37 71  1  0
 37 72  1  0
 38 39  1  0
 38 73  1  1
 39 40  1  0
 39 74  1  0
 39 75  1  0
 40 76  1  0
 40 77  1  0
 40 78  1  0
M  CHG  1  27  -1
M  END
>  <i_m_ct_stereo_status>  (174) 
1

>  <s_m_source_file>  (174) 
/var/tmp/pbs.5076255.sched01/tmp2djcgp0g/84b3bpyveh.sdf

>  <i_m_source_file_index>  (174) 
18

>  <i_lp_mmshare_version>  (174) 
48012

>  <i_f3d_flags>  (174) 
0

>  <s_epik_input>  (174) 
W0NIM11bQ0gyXS9DMT1DKFxbQ0gyXVtDSDJdMilbQ0BIXShbQ0gyXVtDSDNdKVtDQF0zKE4oW0NIM10pW0NIM10pW0NAQEhdNFtDQEhdNVtDQEhdKFtDSDJdNilbQ0BASF0xW0NAQEhdN1tDQEBdNihDKD1PKVtPSF0pYyhjKFtPSF0pbihbQ0gzXSljOFtPSF0pYzhbQ0BASF03TjVjKGM5W0NAQF0yMzQpW2NIXVtjSF1bY0hdW2NIXTk=

>  <s_epik_cmdline>  (174) 
J2VwaWtfcHl0aG9uJywgJy1waHQnLCAnMi4wJywgJy1waCcsICc3LjAnLCAnLXRuJywgJzgnLCAnLW1hJywgJzIwMCcsICctaW1hZScsICc8aW5maWxlLm1hZT4nLCAnLW9tYWUnLCAnPG91dGZpbGUubWFlPic=

>  <r_lp_tautomer_probability>  (174) 
1

>  <r_epik_Ionization_Penalty>  (174) 
1.09211

>  <r_epik_Ionization_Penalty_Charging>  (174) 
0.000988962

>  <r_epik_Ionization_Penalty_Neutral>  (174) 
1.09112

>  <r_epik_State_Penalty>  (174) 
1.12434

>  <r_epik_Charging_Adjusted_Penalty>  (174) 
1.12533

>  <i_epik_Tot_Q>  (174) 
-1

>  <i_epik_Tot_abs_Q>  (174) 
1

>  <s_lp_Force_Field>  (174) 
OPLS3e

>  <r_lp_Energy>  (174) 
291.904

>  <b_lp_Chiralities_Consistent>  (174) 
1

>  <s_lp_Variant>  (174) 
60:0-4

>  <s_i_glide_gridfile>  (174) 
pfpi4k_grid

>  <i_i_glide_lignum>  (174) 
18

>  <i_i_glide_rotatable_bonds>  (174) 
4

>  <r_i_docking_score>  (174) 
-2.23911

>  <r_i_glide_ligand_efficiency>  (174) 
-0.0559778

>  <r_i_glide_ligand_efficiency_sa>  (174) 
-0.191441

>  <r_i_glide_ligand_efficiency_ln>  (174) 
-0.477536

>  <r_i_glide_gscore>  (174) 
-2.23911

>  <r_i_glide_lipo>  (174) 
-0.181994

>  <r_i_glide_hbond>  (174) 
-0.185871

>  <r_i_glide_metal>  (174) 
-0

>  <r_i_glide_rewards>  (174) 
0

>  <r_i_glide_evdw>  (174) 
-23.8466

>  <r_i_glide_ecoul>  (174) 
-3.82184

>  <r_i_glide_erotb>  (174) 
0

>  <r_i_glide_esite>  (174) 
-0.105637

>  <r_i_glide_emodel>  (174) 
-32.5608

>  <r_i_glide_energy>  (174) 
-27.6685

>  <r_i_glide_einternal>  (174) 
1.09259

>  <r_i_glide_intrahb_reward>  (174) 
-0

>  <i_i_glide_confnum>  (174) 
1

>  <i_i_glide_posenum>  (174) 
8

>  <r_i_glide_eff_state_penalty>  (174) 
0

>  <ligand_id>  (174) 
60

>  <original_smiles>  (174) 
CCC1=C2CCC34c5ccccc5N5C6c7c(c(O)n(C)c7O)C7(C(=O)O)CC(C1C67)C5C3C4(N(C)C)C2CC

>  <smiles>  (174) 
[H]c1c([H])c([H])c2c(c1[H])N1C3([H])C4([H])C(=O)N(C([H])([H])[H])C(=O)C4([H])C4(C(=O)[O-])C([H])([H])C5([H])C([H])(C(C([H])([H])C([H])([H])[H])=C6C([H])([H])C([H])([H])C27C([H])(C15[H])C7(N(C([H])([H])[H])C([H])([H])[H])C6([H])C([H])([H])C([H])([H])[H])C34[H]

$$$$
60:3:2
     RDKit          3D

 78 86  0  0  1  0  0  0  0  0999 V2000
   -0.0285   -0.5066    4.3165 C   0  0  0  0  0  0  0  0  0  0  0  0
    0.8704   -1.2359    3.2956 C   0  0  0  0  0  0  0  0  0  0  0  0
    2.1432   -1.8292    3.9395 C   0  0  0  0  0  0  0  0  0  0  0  0
    3.4620   -1.6969    3.4695 C   0  0  0  0  0  0  0  0  0  0  0  0
    4.8112   -2.3003    4.0162 C   0  0  0  0  0  0  0  0  0  0  0  0
    5.4118   -3.5878    3.2464 C   0  0  0  0  0  0  0  0  0  0  0  0
    4.3728   -4.2799    2.3152 C   0  0  1  0  0  0  0  0  0  0  0  0
    4.2481   -5.8456    2.2391 C   0  0  0  0  0  0  0  0  0  0  0  0
    5.1315   -6.6129    1.4257 C   0  0  0  0  0  0  0  0  0  0  0  0
    4.9216   -7.9755    1.2237 C   0  0  0  0  0  0  0  0  0  0  0  0
    3.9104   -8.6557    1.9274 C   0  0  0  0  0  0  0  0  0  0  0  0
    3.0820   -7.9542    2.8303 C   0  0  0  0  0  0  0  0  0  0  0  0
    3.1828   -6.5565    2.9756 C   0  0  0  0  0  0  0  0  0  0  0  0
    2.3296   -5.8493    3.9619 N   0  0  0  0  0  0  0  0  0  0  0  0
    0.8903   -5.3859    3.8597 C   0  0  1  0  0  0  0  0  0  0  0  0
   -0.1767   -6.3469    4.4492 C   0  0  2  0  0  0  0  0  0  0  0  0
   -0.2954   -5.9894    5.9275 C   0  0  1  0  0  0  0  0  0  0  0  0
    0.2299   -7.2384    6.6183 C   0  0  0  0  0  0  0  0  0  0  0  0
    0.4319   -7.3189    7.8456 O   0  0  0  0  0  0  0  0  0  0  0  0
    0.4046   -8.2407    5.7452 N   0  0  0  0  0  0  0  0  0  0  0  0
    0.7557   -9.6073    6.1328 C   0  0  0  0  0  0  0  0  0  0  0  0
    0.1305   -7.8311    4.5060 C   0  0  0  0  0  0  0  0  0  0  0  0
    0.0137   -8.5548    3.5025 O   0  0  0  0  0  0  0  0  0  0  0  0
    0.4252   -4.6357    6.1319 C   0  0  1  0  0  0  0  0  0  0  0  0
   -0.4470   -3.7511    7.0645 C   0  0  0  0  0  0  0  0  0  0  0  0
   -1.3756   -3.0972    6.5437 O   0  0  0  0  0  0  0  0  0  0  0  0
   -0.2132   -3.7772    8.2961 O   0  0  0  0  0  0  0  0  0  0  0  0
    1.9306   -4.6876    6.5318 C   0  0  0  0  0  0  0  0  0  0  0  0
    2.6693   -3.8577    5.4399 C   0  0  2  0  0  0  0  0  0  0  0  0
    1.6710   -2.8738    4.9970 C   0  0  2  0  0  0  0  0  0  0  0  0
    0.5705   -4.0148    4.7154 C   0  0  1  0  0  0  0  0  0  0  0  0
    3.0365   -4.6365    4.1209 C   0  0  2  0  0  0  0  0  0  0  0  0
    2.9639   -4.0353    2.6069 C   0  0  1  0  0  0  0  0  0  0  0  0
    3.6920   -3.1412    1.5592 C   0  0  2  0  0  0  0  0  0  0  0  0
    3.6371   -3.2763    0.0672 N   0  0  0  0  0  0  0  0  0  0  0  0
    2.4110   -3.8241   -0.4921 C   0  0  0  0  0  0  0  0  0  0  0  0
    4.7583   -3.9453   -0.5818 C   0  0  0  0  0  0  0  0  0  0  0  0
    3.7691   -1.6363    1.9758 C   0  0  1  0  0  0  0  0  0  0  0  0
    3.0271   -0.5918    1.1316 C   0  0  0  0  0  0  0  0  0  0  0  0
    2.9459    0.8392    1.7295 C   0  0  0  0  0  0  0  0  0  0  0  0
   -0.7728    0.0748    3.7742 H   0  0  0  0  0  0  0  0  0  0  0  0
    0.5270    0.2133    4.9206 H   0  0  0  0  0  0  0  0  0  0  0  0
   -0.5591   -1.1750    4.9870 H   0  0  0  0  0  0  0  0  0  0  0  0
    0.3393   -2.0493    2.7928 H   0  0  0  0  0  0  0  0  0  0  0  0
    1.0152   -0.4664    2.5419 H   0  0  0  0  0  0  0  0  0  0  0  0
    5.5453   -1.5108    3.8625 H   0  0  0  0  0  0  0  0  0  0  0  0
    4.8655   -2.3767    5.0952 H   0  0  0  0  0  0  0  0  0  0  0  0
    6.2140   -3.2635    2.5853 H   0  0  0  0  0  0  0  0  0  0  0  0
    5.8639   -4.3036    3.9342 H   0  0  0  0  0  0  0  0  0  0  0  0
    5.9557   -6.1435    0.9123 H   0  0  0  0  0  0  0  0  0  0  0  0
    5.5262   -8.5271    0.5219 H   0  0  0  0  0  0  0  0  0  0  0  0
    3.8198   -9.7250    1.8243 H   0  0  0  0  0  0  0  0  0  0  0  0
    2.4079   -8.5378    3.4296 H   0  0  0  0  0  0  0  0  0  0  0  0
    0.6156   -5.2741    2.8144 H   0  0  0  0  0  0  0  0  0  0  0  0
   -1.3560   -5.8843    6.1778 H   0  0  0  0  0  0  0  0  0  0  0  0
    0.8761  -10.2748    5.2745 H   0  0  0  0  0  0  0  0  0  0  0  0
   -0.0127  -10.0468    6.7759 H   0  0  0  0  0  0  0  0  0  0  0  0
    1.6989   -9.6181    6.6860 H   0  0  0  0  0  0  0  0  0  0  0  0
   -1.1393   -6.2211    3.9627 H   0  0  0  0  0  0  0  0  0  0  0  0
    2.0869   -4.2422    7.5121 H   0  0  0  0  0  0  0  0  0  0  0  0
    2.3572   -5.6886    6.5972 H   0  0  0  0  0  0  0  0  0  0  0  0
    3.5192   -3.4400    5.9636 H   0  0  0  0  0  0  0  0  0  0  0  0
    1.3864   -2.2623    5.8546 H   0  0  0  0  0  0  0  0  0  0  0  0
   -0.3618   -3.5642    4.3830 H   0  0  0  0  0  0  0  0  0  0  0  0
    4.0089   -5.0080    4.4494 H   0  0  0  0  0  0  0  0  0  0  0  0
    2.1400   -4.4049    2.0124 H   0  0  0  0  0  0  0  0  0  0  0  0
    2.4646   -3.8341   -1.5847 H   0  0  0  0  0  0  0  0  0  0  0  0
    1.5858   -3.1693   -0.2198 H   0  0  0  0  0  0  0  0  0  0  0  0
    2.2138   -4.8548   -0.1732 H   0  0  0  0  0  0  0  0  0  0  0  0
    4.7568   -3.8013   -1.6578 H   0  0  0  0  0  0  0  0  0  0  0  0
    4.6692   -5.0248   -0.4935 H   0  0  0  0  0  0  0  0  0  0  0  0
    5.7245   -3.6153   -0.2076 H   0  0  0  0  0  0  0  0  0  0  0  0
    4.8078   -1.3599    1.8183 H   0  0  0  0  0  0  0  0  0  0  0  0
    3.5056   -0.5272    0.1533 H   0  0  0  0  0  0  0  0  0  0  0  0
    2.0505   -0.9913    0.9290 H   0  0  0  0  0  0  0  0  0  0  0  0
    2.2384    1.4582    1.1729 H   0  0  0  0  0  0  0  0  0  0  0  0
    3.9032    1.3128    1.6728 H   0  0  0  0  0  0  0  0  0  0  0  0
    2.6627    0.8940    2.7842 H   0  0  0  0  0  0  0  0  0  0  0  0
  1  2  1  0
  1 41  1  0
  1 42  1  0
  1 43  1  0
  2  3  1  0
  2 44  1  0
  2 45  1  0
  3 30  1  0
  3  4  2  3
  4 38  1  0
  4  5  1  0
  5  6  1  0
  5 46  1  0
  5 47  1  0
  7  6  1  1
  6 48  1  0
  6 49  1  0
  7 33  1  0
  7 34  1  0
  7  8  1  0
  8 13  2  0
  8  9  1  0
  9 10  2  0
  9 50  1  0
 10 11  1  0
 10 51  1  0
 11 12  2  0
 11 52  1  0
 12 13  1  0
 12 53  1  0
 13 14  1  0
 14 32  1  0
 14 15  1  0
 15 31  1  0
 15 54  1  6
 15 16  1  0
 16 17  1  0
 16 59  1  6
 16 22  1  0
 17 18  1  0
 17 24  1  0
 17 55  1  1
 18 19  2  0
 18 20  1  0
 20 22  1  0
 20 21  1  0
 21 56  1  0
 21 57  1  0
 21 58  1  0
 22 23  2  0
 24 31  1  0
 24 25  1  1
 24 28  1  0
 25 26  2  0
 25 27  1  0
 28 29  1  0
 28 60  1  0
 28 61  1  0
 29 30  1  0
 29 32  1  0
 29 62  1  1
 30 31  1  0
 30 63  1  1
 31 64  1  6
 32 33  1  0
 32 65  1  1
 33 34  1  0
 33 66  1  6
 34 35  1  6
 34 38  1  0
 35 36  1  0
 35 37  1  0
 36 67  1  0
 36 68  1  0
 36 69  1  0
 37 70  1  0
 37 71  1  0
 37 72  1  0
 38 39  1  0
 38 73  1  1
 39 40  1  0
 39 74  1  0
 39 75  1  0
 40 76  1  0
 40 77  1  0
 40 78  1  0
M  CHG  1  27  -1
M  END
>  <i_m_ct_stereo_status>  (175) 
1

>  <s_m_source_file>  (175) 
/var/tmp/pbs.5076255.sched01/tmp2djcgp0g/84b3bpyveh.sdf

>  <i_m_source_file_index>  (175) 
18

>  <i_lp_mmshare_version>  (175) 
48012

>  <i_f3d_flags>  (175) 
0

>  <s_epik_input>  (175) 
W0NIM11bQ0gyXS9DMT1DKFxbQ0gyXVtDSDJdMilbQ0BIXShbQ0gyXVtDSDNdKVtDQF0zKE4oW0NIM10pW0NIM10pW0NAQEhdNFtDQEhdNVtDQEhdKFtDSDJdNilbQ0BASF0xW0NAQEhdN1tDQEBdNihDKD1PKVtPSF0pYyhjKFtPSF0pbihbQ0gzXSljOFtPSF0pYzhbQ0BASF03TjVjKGM5W0NAQF0yMzQpW2NIXVtjSF1bY0hdW2NIXTk=

>  <s_epik_cmdline>  (175) 
J2VwaWtfcHl0aG9uJywgJy1waHQnLCAnMi4wJywgJy1waCcsICc3LjAnLCAnLXRuJywgJzgnLCAnLW1hJywgJzIwMCcsICctaW1hZScsICc8aW5maWxlLm1hZT4nLCAnLW9tYWUnLCAnPG91dGZpbGUubWFlPic=

>  <r_lp_tautomer_probability>  (175) 
1

>  <r_epik_Ionization_Penalty>  (175) 
1.09211

>  <r_epik_Ionization_Penalty_Charging>  (175) 
0.000988962

>  <r_epik_Ionization_Penalty_Neutral>  (175) 
1.09112

>  <r_epik_State_Penalty>  (175) 
1.12434

>  <r_epik_Charging_Adjusted_Penalty>  (175) 
1.12533

>  <i_epik_Tot_Q>  (175) 
-1

>  <i_epik_Tot_abs_Q>  (175) 
1

>  <s_lp_Force_Field>  (175) 
OPLS3e

>  <r_lp_Energy>  (175) 
291.904

>  <b_lp_Chiralities_Consistent>  (175) 
1

>  <s_lp_Variant>  (175) 
60:0-4

>  <s_i_glide_gridfile>  (175) 
pfpi4k_grid

>  <i_i_glide_lignum>  (175) 
18

>  <i_i_glide_rotatable_bonds>  (175) 
4

>  <r_i_docking_score>  (175) 
-2.07112

>  <r_i_glide_ligand_efficiency>  (175) 
-0.051778

>  <r_i_glide_ligand_efficiency_sa>  (175) 
-0.177078

>  <r_i_glide_ligand_efficiency_ln>  (175) 
-0.441709

>  <r_i_glide_gscore>  (175) 
-2.07112

>  <r_i_glide_lipo>  (175) 
-0.336182

>  <r_i_glide_hbond>  (175) 
0

>  <r_i_glide_metal>  (175) 
-0

>  <r_i_glide_rewards>  (175) 
0

>  <r_i_glide_evdw>  (175) 
-25.9548

>  <r_i_glide_ecoul>  (175) 
-2.22656

>  <r_i_glide_erotb>  (175) 
0

>  <r_i_glide_esite>  (175) 
-0.103216

>  <r_i_glide_emodel>  (175) 
-31.5718

>  <r_i_glide_energy>  (175) 
-28.1813

>  <r_i_glide_einternal>  (175) 
1.96694

>  <r_i_glide_intrahb_reward>  (175) 
-0

>  <i_i_glide_confnum>  (175) 
2

>  <i_i_glide_posenum>  (175) 
27

>  <r_i_glide_eff_state_penalty>  (175) 
0

>  <ligand_id>  (175) 
60

>  <original_smiles>  (175) 
CCC1=C2CCC34c5ccccc5N5C6c7c(c(O)n(C)c7O)C7(C(=O)O)CC(C1C67)C5C3C4(N(C)C)C2CC

>  <smiles>  (175) 
[H]c1c([H])c([H])c2c(c1[H])N1C3([H])C4([H])C(=O)N(C([H])([H])[H])C(=O)C4([H])C4(C(=O)[O-])C([H])([H])C5([H])C([H])(C(C([H])([H])C([H])([H])[H])=C6C([H])([H])C([H])([H])C27C([H])(C15[H])C7(N(C([H])([H])[H])C([H])([H])[H])C6([H])C([H])([H])C([H])([H])[H])C34[H]

$$$$
61:0:0
     RDKit          3D

 94102  0  0  1  0  0  0  0  0999 V2000
    5.4673   -1.9359    7.9081 C   0  0  0  0  0  0  0  0  0  0  0  0
    4.5632   -2.1903    6.6880 C   0  0  2  0  0  0  0  0  0  0  0  0
    5.2619   -3.0877    5.6676 C   0  0  0  0  0  0  0  0  0  0  0  0
    4.3693   -3.3106    4.4445 C   0  0  0  0  0  0  0  0  0  0  0  0
    3.8642   -1.9851    3.8285 C   0  0  2  0  0  0  0  0  0  0  0  0
    5.0680   -1.3188    3.1160 C   0  0  1  0  0  0  0  0  0  0  0  0
    4.9139   -1.6206    1.7693 O   0  0  0  0  0  0  0  0  0  0  0  0
    5.9095   -1.1109    0.9152 C   0  0  2  0  0  0  0  0  0  0  0  0
    5.4006   -0.9432   -0.3509 O   0  0  0  0  0  0  0  0  0  0  0  0
    4.9571   -2.1544   -0.9422 C   0  0  0  0  0  0  0  0  0  0  0  0
    6.1505   -3.1198   -0.9642 C   0  0  1  0  0  0  0  0  0  0  0  0
    7.0376   -2.6791   -1.9570 O   0  0  0  0  0  0  0  0  0  0  0  0
    6.8541   -3.2097    0.4092 C   0  0  1  0  0  0  0  0  0  0  0  0
    8.1584   -4.0242    0.4048 C   0  0  0  0  0  0  0  0  0  0  0  0
    7.0692   -1.8945    0.8834 O   0  0  0  0  0  0  0  0  0  0  0  0
    5.1702    0.0585    3.3121 O   0  0  0  0  0  0  0  0  0  0  0  0
    4.4050    0.7119    4.3138 C   0  0  2  0  0  0  0  0  0  0  0  0
    4.9676    0.2109    5.6575 C   0  0  0  0  0  0  0  0  0  0  0  0
    3.9830   -0.8867    6.0736 C   0  0  1  0  0  0  0  0  0  0  0  0
    3.0669   -1.0582    4.8204 C   0  0  2  0  0  0  0  0  0  0  0  0
    1.9367   -1.7348    5.4367 O   0  0  0  0  0  0  0  0  0  0  0  0
    0.7781   -2.1923    4.7788 C   0  0  0  0  0  0  0  0  0  0  0  0
    1.0100   -3.5147    4.0188 C   0  0  0  0  0  0  0  0  0  0  0  0
   -0.2540   -2.4964    5.8865 C   0  0  0  0  0  0  0  0  0  0  0  0
    0.2921   -1.2649    3.8620 O   0  0  0  0  0  0  0  0  0  0  0  0
   -0.4429   -0.1402    4.3155 C   0  0  1  0  0  0  0  0  0  0  0  0
   -0.0081    0.4656    5.5587 O   0  0  0  0  0  0  0  0  0  0  0  0
    0.5616    1.6071    4.8779 C   0  0  2  0  0  0  0  0  0  0  0  0
    0.0313    1.0685    3.5594 C   0  0  1  0  0  0  0  0  0  0  0  0
    1.0177    0.8234    2.5687 O   0  0  0  0  0  0  0  0  0  0  0  0
    2.3472    0.5763    2.7774 C   0  0  0  0  0  0  0  0  0  0  0  0
    3.0921    0.4665    1.8038 O   0  0  0  0  0  0  0  0  0  0  0  0
    2.8672    0.4222    4.2428 C   0  0  2  0  0  0  0  0  0  0  0  0
    2.0797    1.4291    5.1955 C   0  0  1  0  0  0  0  0  0  0  0  0
    2.7127    2.8419    5.3978 C   0  0  0  0  0  0  0  0  0  0  0  0
    2.0658    3.6345    6.5590 C   0  0  0  0  0  0  0  0  0  0  0  0
    0.5810    3.2865    6.8150 C   0  0  1  0  0  0  0  0  0  0  0  0
   -0.1952    4.2581    7.7619 C   0  0  0  0  0  0  0  0  0  0  0  0
    0.5140    4.2871    9.1377 C   0  0  0  0  0  0  0  0  0  0  0  0
   -0.2676    5.7247    7.2607 C   0  0  0  0  0  0  0  0  0  0  0  0
   -1.6349    3.7342    7.9407 C   0  0  0  0  0  0  0  0  0  0  0  0
   -2.2363    4.0451    8.9677 O   0  0  0  0  0  0  0  0  0  0  0  0
   -2.2886    2.9854    6.8614 C   0  0  0  0  0  0  0  0  0  0  0  0
   -1.6116    2.6208    5.7514 C   0  0  0  0  0  0  0  0  0  0  0  0
   -0.1293    2.8859    5.4819 C   0  0  2  0  0  0  0  0  0  0  0  0
   -0.1047    4.0330    4.4369 C   0  0  0  0  0  0  0  0  0  0  0  0
    6.3867   -1.4150    7.6340 H   0  0  0  0  0  0  0  0  0  0  0  0
    5.7541   -2.8840    8.3608 H   0  0  0  0  0  0  0  0  0  0  0  0
    4.9572   -1.3506    8.6736 H   0  0  0  0  0  0  0  0  0  0  0  0
    3.7099   -2.7615    7.0621 H   0  0  0  0  0  0  0  0  0  0  0  0
    6.2147   -2.6516    5.3874 H   0  0  0  0  0  0  0  0  0  0  0  0
    5.4966   -4.0477    6.1212 H   0  0  0  0  0  0  0  0  0  0  0  0
    4.8909   -3.9172    3.6978 H   0  0  0  0  0  0  0  0  0  0  0  0
    3.5383   -3.9087    4.7782 H   0  0  0  0  0  0  0  0  0  0  0  0
    3.1853   -2.2209    3.0207 H   0  0  0  0  0  0  0  0  0  0  0  0
    6.0223   -1.7534    3.4132 H   0  0  0  0  0  0  0  0  0  0  0  0
    6.2198   -0.1071    1.1517 H   0  0  0  0  0  0  0  0  0  0  0  0
    4.1379   -2.5824   -0.3615 H   0  0  0  0  0  0  0  0  0  0  0  0
    4.5550   -1.9707   -1.9440 H   0  0  0  0  0  0  0  0  0  0  0  0
    5.7886   -4.1092   -1.2485 H   0  0  0  0  0  0  0  0  0  0  0  0
    7.6942   -3.3424   -2.1124 H   0  0  0  0  0  0  0  0  0  0  0  0
    6.1741   -3.6900    1.1047 H   0  0  0  0  0  0  0  0  0  0  0  0
    7.9404   -5.0531    0.1288 H   0  0  0  0  0  0  0  0  0  0  0  0
    8.6230   -4.0278    1.3919 H   0  0  0  0  0  0  0  0  0  0  0  0
    8.8851   -3.6234   -0.2945 H   0  0  0  0  0  0  0  0  0  0  0  0
    4.6346    1.7536    4.1280 H   0  0  0  0  0  0  0  0  0  0  0  0
    5.9943   -0.1433    5.5525 H   0  0  0  0  0  0  0  0  0  0  0  0
    4.9742    1.0042    6.4029 H   0  0  0  0  0  0  0  0  0  0  0  0
    3.3900   -0.4652    6.8768 H   0  0  0  0  0  0  0  0  0  0  0  0
    1.5481   -3.3984    3.0899 H   0  0  0  0  0  0  0  0  0  0  0  0
    0.0424   -3.9167    3.7364 H   0  0  0  0  0  0  0  0  0  0  0  0
    1.4678   -4.2732    4.6520 H   0  0  0  0  0  0  0  0  0  0  0  0
   -0.3101   -1.6861    6.6087 H   0  0  0  0  0  0  0  0  0  0  0  0
    0.0511   -3.3916    6.4296 H   0  0  0  0  0  0  0  0  0  0  0  0
   -1.2492   -2.6721    5.4642 H   0  0  0  0  0  0  0  0  0  0  0  0
   -1.5289   -0.2351    4.2578 H   0  0  0  0  0  0  0  0  0  0  0  0
   -0.7992    1.6480    3.1782 H   0  0  0  0  0  0  0  0  0  0  0  0
    2.1346    1.0220    6.2037 H   0  0  0  0  0  0  0  0  0  0  0  0
    3.7816    2.8268    5.6427 H   0  0  0  0  0  0  0  0  0  0  0  0
    2.6147    3.4005    4.4734 H   0  0  0  0  0  0  0  0  0  0  0  0
    2.6117    3.3778    7.4537 H   0  0  0  0  0  0  0  0  0  0  0  0
    2.2363    4.7080    6.4091 H   0  0  0  0  0  0  0  0  0  0  0  0
    0.6154    2.3507    7.3807 H   0  0  0  0  0  0  0  0  0  0  0  0
    1.5206    4.7132    9.0821 H   0  0  0  0  0  0  0  0  0  0  0  0
    0.6020    3.2843    9.5509 H   0  0  0  0  0  0  0  0  0  0  0  0
   -0.0248    4.8824    9.8804 H   0  0  0  0  0  0  0  0  0  0  0  0
    0.6956    6.1324    6.9496 H   0  0  0  0  0  0  0  0  0  0  0  0
   -0.6522    6.3860    8.0422 H   0  0  0  0  0  0  0  0  0  0  0  0
   -0.9534    5.8323    6.4299 H   0  0  0  0  0  0  0  0  0  0  0  0
   -3.3368    2.7697    6.9856 H   0  0  0  0  0  0  0  0  0  0  0  0
   -2.1371    2.0905    4.9761 H   0  0  0  0  0  0  0  0  0  0  0  0
    0.7934    4.6485    4.4639 H   0  0  0  0  0  0  0  0  0  0  0  0
   -0.9377    4.7198    4.5778 H   0  0  0  0  0  0  0  0  0  0  0  0
   -0.1965    3.6863    3.4009 H   0  0  0  0  0  0  0  0  0  0  0  0
  1  2  1  0
  1 47  1  0
  1 48  1  0
  1 49  1  0
  2 19  1  0
  2  3  1  0
  2 50  1  1
  3  4  1  0
  3 51  1  0
  3 52  1  0
  4  5  1  0
  4 53  1  0
  4 54  1  0
  5 20  1  0
  5  6  1  0
  5 55  1  6
  6  7  1  0
  6 16  1  0
  6 56  1  1
  7  8  1  0
  8 15  1  0
  8  9  1  0
  8 57  1  1
  9 10  1  0
 10 11  1  0
 10 58  1  0
 10 59  1  0
 11 12  1  0
 11 13  1  0
 11 60  1  6
 12 61  1  0
 13 14  1  0
 13 15  1  0
 13 62  1  1
 14 63  1  0
 14 64  1  0
 14 65  1  0
 16 17  1  0
 17 33  1  0
 17 18  1  0
 17 66  1  1
 18 19  1  0
 18 67  1  0
 18 68  1  0
 19 20  1  0
 19 69  1  1
 20 33  1  0
 20 21  1  1
 21 22  1  0
 22 23  1  0
 22 24  1  0
 22 25  1  0
 23 70  1  0
 23 71  1  0
 23 72  1  0
 24 73  1  0
 24 74  1  0
 24 75  1  0
 25 26  1  0
 26 29  1  0
 26 27  1  0
 26 76  1  1
 28 27  1  1
 28 34  1  0
 28 45  1  0
 28 29  1  0
 29 30  1  0
 29 77  1  6
 30 31  1  0
 31 32  2  0
 33 31  1  6
 33 34  1  0
 34 35  1  0
 34 78  1  1
 35 36  1  0
 35 79  1  0
 35 80  1  0
 36 37  1  0
 36 81  1  0
 36 82  1  0
 37 45  1  0
 37 38  1  0
 37 83  1  1
 38 39  1  0
 38 40  1  0
 38 41  1  0
 39 84  1  0
 39 85  1  0
 39 86  1  0
 40 87  1  0
 40 88  1  0
 40 89  1  0
 41 42  2  0
 41 43  1  0
 43 44  2  0
 43 90  1  0
 44 45  1  0
 44 91  1  0
 45 46  1  6
 46 92  1  0
 46 93  1  0
 46 94  1  0
M  END
>  <i_m_ct_stereo_status>  (176) 
1

>  <s_m_source_file>  (176) 
/var/tmp/pbs.5076255.sched01/tmp2djcgp0g/84b3bpyveh.sdf

>  <i_m_source_file_index>  (176) 
19

>  <i_lp_mmshare_version>  (176) 
48012

>  <i_f3d_flags>  (176) 
0

>  <s_epik_input>  (176) 
W0NIM11bQ0BASF0oTzEpW0NASF0oW09IXSlbQ0gyXU9bQ0BIXTFPW0NASF0oW0NASF0yW0NIMl1bQ0gyXVtDQEBIXShbQ0gzXSlbQ0BIXTNbQ0gyXTQpT1tDQEhdNFtDQEBdNShbQ0BAXTIzNilbQ0BASF03W0NAXTgoW0NAQEhdKE9DNT1PKVtDQEhdKE84KU9DKE82KShbQ0gzXSlbQ0gzXSlbQ0BdOShbQ0gzXSlbQ0BASF0oW0NIMl1bQ0gyXTcpQyhbQ0gzXSkoW0NIM10pQyg9TylbQ0hdPVtDSF05

>  <s_epik_cmdline>  (176) 
J2VwaWtfcHl0aG9uJywgJy1waHQnLCAnMi4wJywgJy1waCcsICc3LjAnLCAnLXRuJywgJzgnLCAnLW1hJywgJzIwMCcsICctaW1hZScsICc8aW5maWxlLm1hZT4nLCAnLW9tYWUnLCAnPG91dGZpbGUubWFlPic=

>  <r_lp_tautomer_probability>  (176) 
1

>  <r_epik_Ionization_Penalty>  (176) 
1.04536e-06

>  <r_epik_Ionization_Penalty_Charging>  (176) 
0

>  <r_epik_Ionization_Penalty_Neutral>  (176) 
1.04536e-06

>  <r_epik_State_Penalty>  (176) 
-0

>  <r_epik_Charging_Adjusted_Penalty>  (176) 
0

>  <i_epik_Tot_Q>  (176) 
0

>  <i_epik_Tot_abs_Q>  (176) 
0

>  <s_epik_Chemistry_Notes>  (176) 
This compound has an ester and may undergo hydrolysis at high or low pH. This compound contains an acetal/aminal-like group ( X-CH(R)-Y where X, Y are N, S, or O) that may be acid/base labile, releasing an aldehyde.

>  <s_lp_Force_Field>  (176) 
OPLS3e

>  <r_lp_Energy>  (176) 
102.135

>  <b_lp_Chiralities_Consistent>  (176) 
1

>  <s_lp_Variant>  (176) 
61:0-1

>  <s_i_glide_gridfile>  (176) 
pfpi4k_grid

>  <i_i_glide_lignum>  (176) 
19

>  <i_i_glide_rotatable_bonds>  (176) 
3

>  <r_i_docking_score>  (176) 
-3.12822

>  <r_i_glide_ligand_efficiency>  (176) 
-0.0680048

>  <r_i_glide_ligand_efficiency_sa>  (176) 
-0.243664

>  <r_i_glide_ligand_efficiency_ln>  (176) 
-0.647847

>  <r_i_glide_gscore>  (176) 
-3.12822

>  <r_i_glide_lipo>  (176) 
-0.629723

>  <r_i_glide_hbond>  (176) 
-0.0266642

>  <r_i_glide_metal>  (176) 
-0

>  <r_i_glide_rewards>  (176) 
-0.330101

>  <r_i_glide_evdw>  (176) 
-39.5469

>  <r_i_glide_ecoul>  (176) 
-1.61181

>  <r_i_glide_erotb>  (176) 
0.102046

>  <r_i_glide_esite>  (176) 
-0.0246616

>  <r_i_glide_emodel>  (176) 
-47.1955

>  <r_i_glide_energy>  (176) 
-41.1587

>  <r_i_glide_einternal>  (176) 
2.31109

>  <r_i_glide_intrahb_reward>  (176) 
-0

>  <i_i_glide_confnum>  (176) 
1

>  <i_i_glide_posenum>  (176) 
13

>  <r_i_glide_eff_state_penalty>  (176) 
0

>  <ligand_id>  (176) 
61

>  <original_smiles>  (176) 
CC1CCC2C(OC3OCC(O)C(C)O3)OC3CC1C21OC(C)(C)OC2OC45C2OC(=O)C31C4CCC1C(C)(C)C(=O)C=CC15C

>  <smiles>  (176) 
[H]OC1([H])C([H])([H])OC([H])(OC2([H])OC3([H])C([H])([H])C4([H])C([H])(C([H])([H])[H])C([H])([H])C([H])([H])C2([H])C42OC(C([H])([H])[H])(C([H])([H])[H])OC4([H])OC56C4([H])OC(=O)C32C5([H])C([H])([H])C([H])([H])C2([H])C(C([H])([H])[H])(C([H])([H])[H])C(=O)C([H])=C([H])C26C([H])([H])[H])OC1([H])C([H])([H])[H]

$$$$
61:0:1
     RDKit          3D

 94102  0  0  1  0  0  0  0  0999 V2000
    8.2118   -6.1604    4.4165 C   0  0  0  0  0  0  0  0  0  0  0  0
    7.1655   -6.5268    3.3566 C   0  0  2  0  0  0  0  0  0  0  0  0
    7.6481   -6.1314    1.9660 C   0  0  0  0  0  0  0  0  0  0  0  0
    6.6056   -6.5347    0.9267 C   0  0  0  0  0  0  0  0  0  0  0  0
    5.1973   -5.9881    1.2279 C   0  0  2  0  0  0  0  0  0  0  0  0
    5.2633   -4.4522    0.9557 C   0  0  1  0  0  0  0  0  0  0  0  0
    4.7485   -4.2918   -0.3322 O   0  0  0  0  0  0  0  0  0  0  0  0
    5.4885   -3.4856   -1.1944 C   0  0  2  0  0  0  0  0  0  0  0  0
    5.6078   -2.1744   -0.7321 O   0  0  0  0  0  0  0  0  0  0  0  0
    4.3591   -1.4973   -0.6506 C   0  0  0  0  0  0  0  0  0  0  0  0
    3.6469   -1.5733   -2.0099 C   0  0  1  0  0  0  0  0  0  0  0  0
    4.2305   -0.6581   -2.9332 O   0  0  0  0  0  0  0  0  0  0  0  0
    3.6307   -3.0130   -2.5428 C   0  0  1  0  0  0  0  0  0  0  0  0
    3.0402   -3.1292   -3.9451 C   0  0  0  0  0  0  0  0  0  0  0  0
    4.9579   -3.5290   -2.4866 O   0  0  0  0  0  0  0  0  0  0  0  0
    4.5459   -3.6848    1.8819 O   0  0  0  0  0  0  0  0  0  0  0  0
    4.1595   -4.2255    3.1515 C   0  0  2  0  0  0  0  0  0  0  0  0
    5.4633   -4.5398    3.8992 C   0  0  0  0  0  0  0  0  0  0  0  0
    5.7149   -6.0425    3.6746 C   0  0  1  0  0  0  0  0  0  0  0  0
    4.6313   -6.4128    2.6290 C   0  0  2  0  0  0  0  0  0  0  0  0
    4.5923   -7.8594    2.7855 O   0  0  0  0  0  0  0  0  0  0  0  0
    3.7897   -8.7637    2.0643 C   0  0  0  0  0  0  0  0  0  0  0  0
    4.3329   -9.0423    0.6485 C   0  0  0  0  0  0  0  0  0  0  0  0
    3.8549  -10.1034    2.8402 C   0  0  0  0  0  0  0  0  0  0  0  0
    2.4882   -8.3191    1.9116 O   0  0  0  0  0  0  0  0  0  0  0  0
    1.5851   -8.4100    3.0004 C   0  0  1  0  0  0  0  0  0  0  0  0
    2.1574   -8.1942    4.3128 O   0  0  0  0  0  0  0  0  0  0  0  0
    1.5125   -6.9031    4.4244 C   0  0  2  0  0  0  0  0  0  0  0  0
    0.8116   -7.1117    3.0922 C   0  0  1  0  0  0  0  0  0  0  0  0
    1.0743   -6.1559    2.0779 O   0  0  0  0  0  0  0  0  0  0  0  0
    2.1995   -5.3983    1.9723 C   0  0  0  0  0  0  0  0  0  0  0  0
    2.2670   -4.5988    1.0550 O   0  0  0  0  0  0  0  0  0  0  0  0
    3.3546   -5.5524    3.0529 C   0  0  2  0  0  0  0  0  0  0  0  0
    2.7200   -5.9210    4.4790 C   0  0  1  0  0  0  0  0  0  0  0  0
    2.3986   -4.7367    5.4286 C   0  0  0  0  0  0  0  0  0  0  0  0
    2.1091   -5.1950    6.8708 C   0  0  0  0  0  0  0  0  0  0  0  0
    1.4846   -6.6056    6.9539 C   0  0  1  0  0  0  0  0  0  0  0  0
    0.8960   -6.9736    8.3578 C   0  0  0  0  0  0  0  0  0  0  0  0
    2.0066   -6.9040    9.4336 C   0  0  0  0  0  0  0  0  0  0  0  0
   -0.2388   -6.0410    8.8271 C   0  0  0  0  0  0  0  0  0  0  0  0
    0.3478   -8.4169    8.3161 C   0  0  0  0  0  0  0  0  0  0  0  0
    0.2299   -9.0361    9.3778 O   0  0  0  0  0  0  0  0  0  0  0  0
   -0.1214   -8.9916    7.0384 C   0  0  0  0  0  0  0  0  0  0  0  0
   -0.0335   -8.3059    5.8743 C   0  0  0  0  0  0  0  0  0  0  0  0
    0.6068   -6.9220    5.7099 C   0  0  2  0  0  0  0  0  0  0  0  0
   -0.5586   -5.8999    5.5437 C   0  0  0  0  0  0  0  0  0  0  0  0
    8.3932   -5.1006    4.4744 H   0  0  0  0  0  0  0  0  0  0  0  0
    9.1676   -6.6314    4.1762 H   0  0  0  0  0  0  0  0  0  0  0  0
    7.9176   -6.5079    5.4061 H   0  0  0  0  0  0  0  0  0  0  0  0
    7.1309   -7.6226    3.3394 H   0  0  0  0  0  0  0  0  0  0  0  0
    7.8758   -5.0660    1.9282 H   0  0  0  0  0  0  0  0  0  0  0  0
    8.5857   -6.6359    1.7216 H   0  0  0  0  0  0  0  0  0  0  0  0
    6.9355   -6.2114   -0.0537 H   0  0  0  0  0  0  0  0  0  0  0  0
    6.5796   -7.6207    0.8932 H   0  0  0  0  0  0  0  0  0  0  0  0
    4.5051   -6.3338    0.4715 H   0  0  0  0  0  0  0  0  0  0  0  0
    6.2834   -4.0774    0.9981 H   0  0  0  0  0  0  0  0  0  0  0  0
    6.5030   -3.8838   -1.2862 H   0  0  0  0  0  0  0  0  0  0  0  0
    3.7516   -1.9942    0.1057 H   0  0  0  0  0  0  0  0  0  0  0  0
    4.5055   -0.4715   -0.3108 H   0  0  0  0  0  0  0  0  0  0  0  0
    2.6169   -1.2514   -1.8885 H   0  0  0  0  0  0  0  0  0  0  0  0
    4.0027    0.2074   -2.6707 H   0  0  0  0  0  0  0  0  0  0  0  0
    3.0005   -3.6257   -1.8944 H   0  0  0  0  0  0  0  0  0  0  0  0
    1.9974   -2.8091   -3.9459 H   0  0  0  0  0  0  0  0  0  0  0  0
    3.0710   -4.1541   -4.3110 H   0  0  0  0  0  0  0  0  0  0  0  0
    3.5773   -2.5085   -4.6608 H   0  0  0  0  0  0  0  0  0  0  0  0
    3.6054   -3.4077    3.5998 H   0  0  0  0  0  0  0  0  0  0  0  0
    6.2058   -3.8603    3.5068 H   0  0  0  0  0  0  0  0  0  0  0  0
    5.3681   -4.3586    4.9633 H   0  0  0  0  0  0  0  0  0  0  0  0
    5.4806   -6.5730    4.5896 H   0  0  0  0  0  0  0  0  0  0  0  0
    4.2481   -8.2018   -0.0355 H   0  0  0  0  0  0  0  0  0  0  0  0
    3.7317   -9.8342    0.2069 H   0  0  0  0  0  0  0  0  0  0  0  0
    5.3718   -9.3703    0.6868 H   0  0  0  0  0  0  0  0  0  0  0  0
    3.7024   -9.9571    3.9074 H   0  0  0  0  0  0  0  0  0  0  0  0
    4.8438  -10.5398    2.7176 H   0  0  0  0  0  0  0  0  0  0  0  0
    3.1266  -10.8158    2.4579 H   0  0  0  0  0  0  0  0  0  0  0  0
    0.9406   -9.2838    2.9679 H   0  0  0  0  0  0  0  0  0  0  0  0
   -0.2547   -7.3206    3.1791 H   0  0  0  0  0  0  0  0  0  0  0  0
    3.4887   -6.4530    5.0247 H   0  0  0  0  0  0  0  0  0  0  0  0
    3.2114   -4.0218    5.5377 H   0  0  0  0  0  0  0  0  0  0  0  0
    1.5520   -4.1778    5.0249 H   0  0  0  0  0  0  0  0  0  0  0  0
    3.0538   -5.2279    7.4125 H   0  0  0  0  0  0  0  0  0  0  0  0
    1.5106   -4.4373    7.3748 H   0  0  0  0  0  0  0  0  0  0  0  0
    2.3310   -7.2921    6.8596 H   0  0  0  0  0  0  0  0  0  0  0  0
    2.3677   -5.8859    9.5770 H   0  0  0  0  0  0  0  0  0  0  0  0
    2.8497   -7.5395    9.1574 H   0  0  0  0  0  0  0  0  0  0  0  0
    1.6599   -7.2449   10.4125 H   0  0  0  0  0  0  0  0  0  0  0  0
   -0.0175   -4.9785    8.7657 H   0  0  0  0  0  0  0  0  0  0  0  0
   -0.4901   -6.2413    9.8713 H   0  0  0  0  0  0  0  0  0  0  0  0
   -1.1526   -6.2141    8.2632 H   0  0  0  0  0  0  0  0  0  0  0  0
   -0.6184   -9.9492    7.0650 H   0  0  0  0  0  0  0  0  0  0  0  0
   -0.4732   -8.7460    4.9861 H   0  0  0  0  0  0  0  0  0  0  0  0
   -0.3203   -4.8887    5.8812 H   0  0  0  0  0  0  0  0  0  0  0  0
   -1.4288   -6.2054    6.1080 H   0  0  0  0  0  0  0  0  0  0  0  0
   -0.9085   -5.8322    4.5160 H   0  0  0  0  0  0  0  0  0  0  0  0
  1  2  1  0
  1 47  1  0
  1 48  1  0
  1 49  1  0
  2 19  1  0
  2  3  1  0
  2 50  1  6
  3  4  1  0
  3 51  1  0
  3 52  1  0
  4  5  1  0
  4 53  1  0
  4 54  1  0
  5 20  1  0
  5  6  1  0
  5 55  1  6
  6  7  1  0
  6 16  1  0
  6 56  1  6
  7  8  1  0
  8 15  1  0
  8  9  1  0
  8 57  1  6
  9 10  1  0
 10 11  1  0
 10 58  1  0
 10 59  1  0
 11 12  1  0
 11 13  1  0
 11 60  1  1
 12 61  1  0
 13 14  1  0
 13 15  1  0
 13 62  1  1
 14 63  1  0
 14 64  1  0
 14 65  1  0
 16 17  1  0
 17 33  1  0
 17 18  1  0
 17 66  1  1
 18 19  1  0
 18 67  1  0
 18 68  1  0
 19 20  1  0
 19 69  1  1
 20 33  1  0
 20 21  1  6
 21 22  1  0
 22 23  1  0
 22 24  1  0
 22 25  1  0
 23 70  1  0
 23 71  1  0
 23 72  1  0
 24 73  1  0
 24 74  1  0
 24 75  1  0
 25 26  1  0
 26 29  1  0
 26 27  1  0
 26 76  1  1
 28 27  1  1
 28 34  1  0
 28 45  1  0
 28 29  1  0
 29 30  1  0
 29 77  1  1
 30 31  1  0
 31 32  2  0
 33 31  1  6
 33 34  1  0
 34 35  1  0
 34 78  1  1
 35 36  1  0
 35 79  1  0
 35 80  1  0
 36 37  1  0
 36 81  1  0
 36 82  1  0
 37 45  1  0
 37 38  1  0
 37 83  1  6
 38 39  1  0
 38 40  1  0
 38 41  1  0
 39 84  1  0
 39 85  1  0
 39 86  1  0
 40 87  1  0
 40 88  1  0
 40 89  1  0
 41 42  2  0
 41 43  1  0
 43 44  2  0
 43 90  1  0
 44 45  1  0
 44 91  1  0
 45 46  1  6
 46 92  1  0
 46 93  1  0
 46 94  1  0
M  END
>  <i_m_ct_stereo_status>  (177) 
1

>  <s_m_source_file>  (177) 
/var/tmp/pbs.5076255.sched01/tmp2djcgp0g/84b3bpyveh.sdf

>  <i_m_source_file_index>  (177) 
19

>  <i_lp_mmshare_version>  (177) 
48012

>  <i_f3d_flags>  (177) 
0

>  <s_epik_input>  (177) 
W0NIM11bQ0BASF0oTzEpW0NASF0oW09IXSlbQ0gyXU9bQ0BIXTFPW0NASF0oW0NASF0yW0NIMl1bQ0gyXVtDQEBIXShbQ0gzXSlbQ0BIXTNbQ0gyXTQpT1tDQEhdNFtDQEBdNShbQ0BAXTIzNilbQ0BASF03W0NAXTgoW0NAQEhdKE9DNT1PKVtDQEhdKE84KU9DKE82KShbQ0gzXSlbQ0gzXSlbQ0BdOShbQ0gzXSlbQ0BASF0oW0NIMl1bQ0gyXTcpQyhbQ0gzXSkoW0NIM10pQyg9TylbQ0hdPVtDSF05

>  <s_epik_cmdline>  (177) 
J2VwaWtfcHl0aG9uJywgJy1waHQnLCAnMi4wJywgJy1waCcsICc3LjAnLCAnLXRuJywgJzgnLCAnLW1hJywgJzIwMCcsICctaW1hZScsICc8aW5maWxlLm1hZT4nLCAnLW9tYWUnLCAnPG91dGZpbGUubWFlPic=

>  <r_lp_tautomer_probability>  (177) 
1

>  <r_epik_Ionization_Penalty>  (177) 
1.04536e-06

>  <r_epik_Ionization_Penalty_Charging>  (177) 
0

>  <r_epik_Ionization_Penalty_Neutral>  (177) 
1.04536e-06

>  <r_epik_State_Penalty>  (177) 
-0

>  <r_epik_Charging_Adjusted_Penalty>  (177) 
0

>  <i_epik_Tot_Q>  (177) 
0

>  <i_epik_Tot_abs_Q>  (177) 
0

>  <s_epik_Chemistry_Notes>  (177) 
This compound has an ester and may undergo hydrolysis at high or low pH. This compound contains an acetal/aminal-like group ( X-CH(R)-Y where X, Y are N, S, or O) that may be acid/base labile, releasing an aldehyde.

>  <s_lp_Force_Field>  (177) 
OPLS3e

>  <r_lp_Energy>  (177) 
102.135

>  <b_lp_Chiralities_Consistent>  (177) 
1

>  <s_lp_Variant>  (177) 
61:0-1

>  <s_i_glide_gridfile>  (177) 
pfpi4k_grid

>  <i_i_glide_lignum>  (177) 
19

>  <i_i_glide_rotatable_bonds>  (177) 
3

>  <r_i_docking_score>  (177) 
-2.76147

>  <r_i_glide_ligand_efficiency>  (177) 
-0.0600319

>  <r_i_glide_ligand_efficiency_sa>  (177) 
-0.215097

>  <r_i_glide_ligand_efficiency_ln>  (177) 
-0.571893

>  <r_i_glide_gscore>  (177) 
-2.76147

>  <r_i_glide_lipo>  (177) 
-0.261225

>  <r_i_glide_hbond>  (177) 
-0.0419693

>  <r_i_glide_metal>  (177) 
-0

>  <r_i_glide_rewards>  (177) 
-0.182409

>  <r_i_glide_evdw>  (177) 
-37.0249

>  <r_i_glide_ecoul>  (177) 
-2.81972

>  <r_i_glide_erotb>  (177) 
0.102046

>  <r_i_glide_esite>  (177) 
-0.103707

>  <r_i_glide_emodel>  (177) 
-44.0808

>  <r_i_glide_energy>  (177) 
-39.8446

>  <r_i_glide_einternal>  (177) 
3.74388

>  <r_i_glide_intrahb_reward>  (177) 
-0

>  <i_i_glide_confnum>  (177) 
1

>  <i_i_glide_posenum>  (177) 
12

>  <r_i_glide_eff_state_penalty>  (177) 
0

>  <ligand_id>  (177) 
61

>  <original_smiles>  (177) 
CC1CCC2C(OC3OCC(O)C(C)O3)OC3CC1C21OC(C)(C)OC2OC45C2OC(=O)C31C4CCC1C(C)(C)C(=O)C=CC15C

>  <smiles>  (177) 
[H]OC1([H])C([H])([H])OC([H])(OC2([H])OC3([H])C([H])([H])C4([H])C([H])(C([H])([H])[H])C([H])([H])C([H])([H])C2([H])C42OC(C([H])([H])[H])(C([H])([H])[H])OC4([H])OC56C4([H])OC(=O)C32C5([H])C([H])([H])C([H])([H])C2([H])C(C([H])([H])[H])(C([H])([H])[H])C(=O)C([H])=C([H])C26C([H])([H])[H])OC1([H])C([H])([H])[H]

$$$$
61:0:2
     RDKit          3D

 94102  0  0  1  0  0  0  0  0999 V2000
    5.3379   -1.6407    8.1371 C   0  0  0  0  0  0  0  0  0  0  0  0
    4.3744   -1.8961    6.9633 C   0  0  2  0  0  0  0  0  0  0  0  0
    5.0028   -2.8392    5.9413 C   0  0  0  0  0  0  0  0  0  0  0  0
    4.0426   -3.0746    4.7660 C   0  0  0  0  0  0  0  0  0  0  0  0
    3.5497   -1.7520    4.1288 C   0  0  2  0  0  0  0  0  0  0  0  0
    4.7751   -1.1590    3.3736 C   0  0  1  0  0  0  0  0  0  0  0  0
    4.5958   -1.5287    2.0492 O   0  0  0  0  0  0  0  0  0  0  0  0
    5.7549   -1.6580    1.2798 C   0  0  2  0  0  0  0  0  0  0  0  0
    5.7311   -0.8088    0.1764 O   0  0  0  0  0  0  0  0  0  0  0  0
    4.6302   -1.0478   -0.6956 C   0  0  0  0  0  0  0  0  0  0  0  0
    4.6511   -2.5233   -1.1344 C   0  0  1  0  0  0  0  0  0  0  0  0
    5.6523   -2.7074   -2.1105 O   0  0  0  0  0  0  0  0  0  0  0  0
    4.8198   -3.4572    0.0920 C   0  0  1  0  0  0  0  0  0  0  0  0
    4.9794   -4.9352   -0.2671 C   0  0  0  0  0  0  0  0  0  0  0  0
    5.9109   -2.9901    0.8805 O   0  0  0  0  0  0  0  0  0  0  0  0
    4.9001    0.2207    3.4786 O   0  0  0  0  0  0  0  0  0  0  0  0
    4.2140    0.9408    4.4946 C   0  0  2  0  0  0  0  0  0  0  0  0
    4.7989    0.4647    5.8382 C   0  0  0  0  0  0  0  0  0  0  0  0
    3.8038   -0.5958    6.3342 C   0  0  1  0  0  0  0  0  0  0  0  0
    2.8273   -0.7809    5.1342 C   0  0  2  0  0  0  0  0  0  0  0  0
    1.7056   -1.4062    5.8003 O   0  0  0  0  0  0  0  0  0  0  0  0
    0.5033   -1.8526    5.2127 C   0  0  0  0  0  0  0  0  0  0  0  0
    0.6526   -3.1957    4.4733 C   0  0  0  0  0  0  0  0  0  0  0  0
   -0.4809   -2.1060    6.3748 C   0  0  0  0  0  0  0  0  0  0  0  0
   -0.0153   -0.9425    4.2935 O   0  0  0  0  0  0  0  0  0  0  0  0
   -0.6785    0.2220    4.7499 C   0  0  1  0  0  0  0  0  0  0  0  0
   -0.1735    0.8249    5.9659 O   0  0  0  0  0  0  0  0  0  0  0  0
    0.3949    1.9458    5.2463 C   0  0  2  0  0  0  0  0  0  0  0  0
   -0.1953    1.3993    3.9450 C   0  0  1  0  0  0  0  0  0  0  0  0
    0.7374    1.1031    2.9293 O   0  0  0  0  0  0  0  0  0  0  0  0
    2.0564    0.8203    3.0668 C   0  0  0  0  0  0  0  0  0  0  0  0
    2.7488    0.6533    2.0707 O   0  0  0  0  0  0  0  0  0  0  0  0
    2.6521    0.6992    4.5163 C   0  0  2  0  0  0  0  0  0  0  0  0
    1.9269    1.7427    5.4886 C   0  0  1  0  0  0  0  0  0  0  0  0
    2.5955    3.1517    5.6275 C   0  0  0  0  0  0  0  0  0  0  0  0
    2.0211    3.9766    6.7994 C   0  0  0  0  0  0  0  0  0  0  0  0
    0.5367    3.6828    7.1237 C   0  0  1  0  0  0  0  0  0  0  0  0
   -0.1711    4.6958    8.0814 C   0  0  0  0  0  0  0  0  0  0  0  0
    0.5971    4.7337    9.4284 C   0  0  0  0  0  0  0  0  0  0  0  0
   -0.2415    6.1502    7.5457 C   0  0  0  0  0  0  0  0  0  0  0  0
   -1.6199    4.2131    8.3436 C   0  0  0  0  0  0  0  0  0  0  0  0
   -2.1738    4.5571    9.3851 O   0  0  0  0  0  0  0  0  0  0  0  0
   -2.3223    3.4453    7.3076 C   0  0  0  0  0  0  0  0  0  0  0  0
   -1.7131    3.0405    6.1834 C   0  0  0  0  0  0  0  0  0  0  0  0
   -0.2377    3.2580    5.8340 C   0  0  2  0  0  0  0  0  0  0  0  0
   -0.2350    4.3870    4.7615 C   0  0  0  0  0  0  0  0  0  0  0  0
    6.2568   -1.1505    7.8133 H   0  0  0  0  0  0  0  0  0  0  0  0
    5.6207   -2.5857    8.6007 H   0  0  0  0  0  0  0  0  0  0  0  0
    4.8770   -1.0250    8.9110 H   0  0  0  0  0  0  0  0  0  0  0  0
    3.5227   -2.4319    7.3862 H   0  0  0  0  0  0  0  0  0  0  0  0
    5.9587   -2.4364    5.6242 H   0  0  0  0  0  0  0  0  0  0  0  0
    5.2383   -3.7934    6.4071 H   0  0  0  0  0  0  0  0  0  0  0  0
    4.5198   -3.7098    4.0113 H   0  0  0  0  0  0  0  0  0  0  0  0
    3.2097   -3.6449    5.1473 H   0  0  0  0  0  0  0  0  0  0  0  0
    2.8339   -1.9810    3.3440 H   0  0  0  0  0  0  0  0  0  0  0  0
    5.7078   -1.5732    3.7529 H   0  0  0  0  0  0  0  0  0  0  0  0
    6.6720   -1.3849    1.7900 H   0  0  0  0  0  0  0  0  0  0  0  0
    3.6989   -0.8283   -0.1692 H   0  0  0  0  0  0  0  0  0  0  0  0
    4.6627   -0.3709   -1.5528 H   0  0  0  0  0  0  0  0  0  0  0  0
    3.6993   -2.7472   -1.6176 H   0  0  0  0  0  0  0  0  0  0  0  0
    5.6770   -3.6423   -2.3171 H   0  0  0  0  0  0  0  0  0  0  0  0
    3.9083   -3.3886    0.6873 H   0  0  0  0  0  0  0  0  0  0  0  0
    4.0838   -5.2842   -0.7695 H   0  0  0  0  0  0  0  0  0  0  0  0
    5.1210   -5.5572    0.6161 H   0  0  0  0  0  0  0  0  0  0  0  0
    5.8179   -5.0842   -0.9260 H   0  0  0  0  0  0  0  0  0  0  0  0
    4.4671    1.9809    4.2808 H   0  0  0  0  0  0  0  0  0  0  0  0
    5.8129    0.0822    5.7169 H   0  0  0  0  0  0  0  0  0  0  0  0
    4.8489    1.2813    6.5588 H   0  0  0  0  0  0  0  0  0  0  0  0
    3.2556   -0.1356    7.1529 H   0  0  0  0  0  0  0  0  0  0  0  0
    1.1641   -3.1132    3.5256 H   0  0  0  0  0  0  0  0  0  0  0  0
   -0.3415   -3.5661    4.2397 H   0  0  0  0  0  0  0  0  0  0  0  0
    1.1202   -3.9483    5.1050 H   0  0  0  0  0  0  0  0  0  0  0  0
   -0.4819   -1.2780    7.0779 H   0  0  0  0  0  0  0  0  0  0  0  0
   -0.1662   -2.9943    6.9276 H   0  0  0  0  0  0  0  0  0  0  0  0
   -1.4951   -2.2787    6.0031 H   0  0  0  0  0  0  0  0  0  0  0  0
   -1.7677    0.1417    4.7455 H   0  0  0  0  0  0  0  0  0  0  0  0
   -1.0297    1.9905    3.5836 H   0  0  0  0  0  0  0  0  0  0  0  0
    2.0158    1.3608    6.5030 H   0  0  0  0  0  0  0  0  0  0  0  0
    3.6698    3.1066    5.8204 H   0  0  0  0  0  0  0  0  0  0  0  0
    2.4739    3.6883    4.6891 H   0  0  0  0  0  0  0  0  0  0  0  0
    2.6006    3.7332    7.6866 H   0  0  0  0  0  0  0  0  0  0  0  0
    2.2059    5.0381    6.6140 H   0  0  0  0  0  0  0  0  0  0  0  0
    0.5700    2.7611    7.7067 H   0  0  0  0  0  0  0  0  0  0  0  0
    1.6086    5.1310    9.3171 H   0  0  0  0  0  0  0  0  0  0  0  0
    0.6786    3.7345    9.8600 H   0  0  0  0  0  0  0  0  0  0  0  0
    0.1045    5.3587   10.1771 H   0  0  0  0  0  0  0  0  0  0  0  0
    0.7171    6.5235    7.1831 H   0  0  0  0  0  0  0  0  0  0  0  0
   -0.5677    6.8397    8.3278 H   0  0  0  0  0  0  0  0  0  0  0  0
   -0.9634    6.2602    6.7448 H   0  0  0  0  0  0  0  0  0  0  0  0
   -3.3701    3.2559    7.4816 H   0  0  0  0  0  0  0  0  0  0  0  0
   -2.2977    2.5086    5.4443 H   0  0  0  0  0  0  0  0  0  0  0  0
    0.6797    4.9777    4.7366 H   0  0  0  0  0  0  0  0  0  0  0  0
   -1.0424    5.0975    4.9234 H   0  0  0  0  0  0  0  0  0  0  0  0
   -0.3808    4.0167    3.7388 H   0  0  0  0  0  0  0  0  0  0  0  0
  1  2  1  0
  1 47  1  0
  1 48  1  0
  1 49  1  0
  2 19  1  0
  2  3  1  0
  2 50  1  1
  3  4  1  0
  3 51  1  0
  3 52  1  0
  4  5  1  0
  4 53  1  0
  4 54  1  0
  5 20  1  0
  5  6  1  0
  5 55  1  6
  6  7  1  0
  6 16  1  0
  6 56  1  1
  7  8  1  0
  8 15  1  0
  8  9  1  0
  8 57  1  1
  9 10  1  0
 10 11  1  0
 10 58  1  0
 10 59  1  0
 11 12  1  0
 11 13  1  0
 11 60  1  6
 12 61  1  0
 13 14  1  0
 13 15  1  0
 13 62  1  1
 14 63  1  0
 14 64  1  0
 14 65  1  0
 16 17  1  0
 17 33  1  0
 17 18  1  0
 17 66  1  6
 18 19  1  0
 18 67  1  0
 18 68  1  0
 19 20  1  0
 19 69  1  1
 20 33  1  0
 20 21  1  1
 21 22  1  0
 22 23  1  0
 22 24  1  0
 22 25  1  0
 23 70  1  0
 23 71  1  0
 23 72  1  0
 24 73  1  0
 24 74  1  0
 24 75  1  0
 25 26  1  0
 26 29  1  0
 26 27  1  0
 26 76  1  1
 28 27  1  1
 28 34  1  0
 28 45  1  0
 28 29  1  0
 29 30  1  0
 29 77  1  6
 30 31  1  0
 31 32  2  0
 33 31  1  6
 33 34  1  0
 34 35  1  0
 34 78  1  1
 35 36  1  0
 35 79  1  0
 35 80  1  0
 36 37  1  0
 36 81  1  0
 36 82  1  0
 37 45  1  0
 37 38  1  0
 37 83  1  1
 38 39  1  0
 38 40  1  0
 38 41  1  0
 39 84  1  0
 39 85  1  0
 39 86  1  0
 40 87  1  0
 40 88  1  0
 40 89  1  0
 41 42  2  0
 41 43  1  0
 43 44  2  0
 43 90  1  0
 44 45  1  0
 44 91  1  0
 45 46  1  6
 46 92  1  0
 46 93  1  0
 46 94  1  0
M  END
>  <i_m_ct_stereo_status>  (178) 
1

>  <s_m_source_file>  (178) 
/var/tmp/pbs.5076255.sched01/tmp2djcgp0g/84b3bpyveh.sdf

>  <i_m_source_file_index>  (178) 
19

>  <i_lp_mmshare_version>  (178) 
48012

>  <i_f3d_flags>  (178) 
0

>  <s_epik_input>  (178) 
W0NIM11bQ0BASF0oTzEpW0NASF0oW09IXSlbQ0gyXU9bQ0BIXTFPW0NASF0oW0NASF0yW0NIMl1bQ0gyXVtDQEBIXShbQ0gzXSlbQ0BIXTNbQ0gyXTQpT1tDQEhdNFtDQEBdNShbQ0BAXTIzNilbQ0BASF03W0NAXTgoW0NAQEhdKE9DNT1PKVtDQEhdKE84KU9DKE82KShbQ0gzXSlbQ0gzXSlbQ0BdOShbQ0gzXSlbQ0BASF0oW0NIMl1bQ0gyXTcpQyhbQ0gzXSkoW0NIM10pQyg9TylbQ0hdPVtDSF05

>  <s_epik_cmdline>  (178) 
J2VwaWtfcHl0aG9uJywgJy1waHQnLCAnMi4wJywgJy1waCcsICc3LjAnLCAnLXRuJywgJzgnLCAnLW1hJywgJzIwMCcsICctaW1hZScsICc8aW5maWxlLm1hZT4nLCAnLW9tYWUnLCAnPG91dGZpbGUubWFlPic=

>  <r_lp_tautomer_probability>  (178) 
1

>  <r_epik_Ionization_Penalty>  (178) 
1.04536e-06

>  <r_epik_Ionization_Penalty_Charging>  (178) 
0

>  <r_epik_Ionization_Penalty_Neutral>  (178) 
1.04536e-06

>  <r_epik_State_Penalty>  (178) 
-0

>  <r_epik_Charging_Adjusted_Penalty>  (178) 
0

>  <i_epik_Tot_Q>  (178) 
0

>  <i_epik_Tot_abs_Q>  (178) 
0

>  <s_epik_Chemistry_Notes>  (178) 
This compound has an ester and may undergo hydrolysis at high or low pH. This compound contains an acetal/aminal-like group ( X-CH(R)-Y where X, Y are N, S, or O) that may be acid/base labile, releasing an aldehyde.

>  <s_lp_Force_Field>  (178) 
OPLS3e

>  <r_lp_Energy>  (178) 
102.135

>  <b_lp_Chiralities_Consistent>  (178) 
1

>  <s_lp_Variant>  (178) 
61:0-1

>  <s_i_glide_gridfile>  (178) 
pfpi4k_grid

>  <i_i_glide_lignum>  (178) 
19

>  <i_i_glide_rotatable_bonds>  (178) 
3

>  <r_i_docking_score>  (178) 
-2.41942

>  <r_i_glide_ligand_efficiency>  (178) 
-0.0525962

>  <r_i_glide_ligand_efficiency_sa>  (178) 
-0.188455

>  <r_i_glide_ligand_efficiency_ln>  (178) 
-0.501057

>  <r_i_glide_gscore>  (178) 
-2.41942

>  <r_i_glide_lipo>  (178) 
-0.228876

>  <r_i_glide_hbond>  (178) 
-0.00120715

>  <r_i_glide_metal>  (178) 
-0

>  <r_i_glide_rewards>  (178) 
-0.290932

>  <r_i_glide_evdw>  (178) 
-37.6605

>  <r_i_glide_ecoul>  (178) 
-0.521559

>  <r_i_glide_erotb>  (178) 
0.102046

>  <r_i_glide_esite>  (178) 
-0.0391963

>  <r_i_glide_emodel>  (178) 
-42.4791

>  <r_i_glide_energy>  (178) 
-38.1821

>  <r_i_glide_einternal>  (178) 
2.4688

>  <r_i_glide_intrahb_reward>  (178) 
-0

>  <i_i_glide_confnum>  (178) 
1

>  <i_i_glide_posenum>  (178) 
11

>  <r_i_glide_eff_state_penalty>  (178) 
0

>  <ligand_id>  (178) 
61

>  <original_smiles>  (178) 
CC1CCC2C(OC3OCC(O)C(C)O3)OC3CC1C21OC(C)(C)OC2OC45C2OC(=O)C31C4CCC1C(C)(C)C(=O)C=CC15C

>  <smiles>  (178) 
[H]OC1([H])C([H])([H])OC([H])(OC2([H])OC3([H])C([H])([H])C4([H])C([H])(C([H])([H])[H])C([H])([H])C([H])([H])C2([H])C42OC(C([H])([H])[H])(C([H])([H])[H])OC4([H])OC56C4([H])OC(=O)C32C5([H])C([H])([H])C([H])([H])C2([H])C(C([H])([H])[H])(C([H])([H])[H])C(=O)C([H])=C([H])C26C([H])([H])[H])OC1([H])C([H])([H])[H]

$$$$
62:0:0
     RDKit          3D

 78 86  0  0  1  0  0  0  0  0999 V2000
   -0.5628    0.6238    2.9781 C   0  0  0  0  0  0  0  0  0  0  0  0
    0.8816    1.0071    3.3821 C   0  0  2  0  0  0  0  0  0  0  0  0
    2.0032    0.2526    2.4123 C   0  0  2  0  0  0  0  0  0  0  0  0
    1.9666   -1.2650    1.9201 C   0  0  0  0  0  0  0  0  0  0  0  0
    2.9690   -2.3777    2.5165 C   0  0  1  0  0  0  0  0  0  0  0  0
    3.3924   -3.2495    1.2987 C   0  0  0  0  0  0  0  0  0  0  0  0
    4.2749   -1.7116    3.1306 C   0  0  1  0  0  0  0  0  0  0  0  0
    4.4291   -0.3176    2.4352 C   0  0  0  0  0  0  0  0  0  0  0  0
    3.3623    0.6429    2.5811 O   0  0  0  0  0  0  0  0  0  0  0  0
    4.8161   -1.8209    4.6672 C   0  0  2  0  0  0  0  0  0  0  0  0
    4.9908   -3.1775    5.3194 C   0  0  0  0  0  0  0  0  0  0  0  0
    3.7527   -3.3493    6.2461 C   0  0  2  0  0  0  0  0  0  0  0  0
    2.8614   -4.5047    5.7024 C   0  0  0  0  0  0  0  0  0  0  0  0
    2.7197   -4.6287    4.1151 C   0  0  1  0  0  0  0  0  0  0  0  0
    1.8842   -5.8193    3.7873 N   0  0  0  0  0  0  0  0  0  0  0  0
    2.4703   -6.8615    3.0080 C   0  0  0  0  0  0  0  0  0  0  0  0
    1.8564   -7.9492    2.6192 N   0  0  0  0  0  0  0  0  0  0  0  0
    0.5465   -8.0366    3.0422 C   0  0  0  0  0  0  0  0  0  0  0  0
   -0.3351   -9.0489    2.7925 C   0  0  0  0  0  0  0  0  0  0  0  0
   -1.5243   -8.5991    3.4519 C   0  0  0  0  0  0  0  0  0  0  0  0
   -1.3844   -7.4109    4.0331 N   0  0  0  0  0  0  0  0  0  0  0  0
   -0.1001   -7.0912    3.7937 N   0  0  0  0  0  0  0  0  0  0  0  0
    0.5965   -5.9192    4.2129 C   0  0  0  0  0  0  0  0  0  0  0  0
   -0.0281   -5.0931    4.8803 O   0  0  0  0  0  0  0  0  0  0  0  0
    2.1555   -3.3386    3.4315 C   0  0  1  0  0  0  0  0  0  0  0  0
    1.7638   -2.7079    4.5716 O   0  0  0  0  0  0  0  0  0  0  0  0
    1.8352   -1.3588    4.7132 C   0  0  0  0  0  0  0  0  0  0  0  0
    2.9368   -0.4049    5.4853 C   0  0  1  0  0  0  0  0  0  0  0  0
    3.3743    1.0905    5.2034 C   0  0  0  0  0  0  0  0  0  0  0  0
    2.2603    2.1131    5.1690 C   0  0  0  0  0  0  0  0  0  0  0  0
    0.9876    1.3221    5.0149 C   0  0  2  0  0  0  0  0  0  0  0  0
    0.9396    0.3364    6.3815 C   0  0  1  0  0  0  0  0  0  0  0  0
   -0.4221   -0.3884    6.5963 C   0  0  0  0  0  0  0  0  0  0  0  0
   -1.4854    0.5427    6.7181 O   0  0  0  0  0  0  0  0  0  0  0  0
    2.3786   -0.4397    6.8381 C   0  0  2  0  0  0  0  0  0  0  0  0
    2.9004    0.4023    8.0482 C   0  0  0  0  0  0  0  0  0  0  0  0
    3.2832   -1.9055    6.8645 C   0  0  2  0  0  0  0  0  0  0  0  0
    4.1414   -1.1128    5.8485 C   0  0  1  0  0  0  0  0  0  0  0  0
   -0.8357   -0.3802    3.2910 H   0  0  0  0  0  0  0  0  0  0  0  0
   -0.6897    0.6740    1.8958 H   0  0  0  0  0  0  0  0  0  0  0  0
   -1.2975    1.3036    3.4114 H   0  0  0  0  0  0  0  0  0  0  0  0
    0.9356    2.0192    2.9782 H   0  0  0  0  0  0  0  0  0  0  0  0
    1.7801    0.7609    1.4732 H   0  0  0  0  0  0  0  0  0  0  0  0
    0.9418   -1.6215    1.8909 H   0  0  0  0  0  0  0  0  0  0  0  0
    2.2143   -1.1871    0.8612 H   0  0  0  0  0  0  0  0  0  0  0  0
    4.0603   -4.0638    1.5839 H   0  0  0  0  0  0  0  0  0  0  0  0
    3.9198   -2.6572    0.5458 H   0  0  0  0  0  0  0  0  0  0  0  0
    2.5261   -3.6943    0.8050 H   0  0  0  0  0  0  0  0  0  0  0  0
    5.0833   -2.2752    2.6657 H   0  0  0  0  0  0  0  0  0  0  0  0
    5.3577    0.1484    2.7610 H   0  0  0  0  0  0  0  0  0  0  0  0
    4.5413   -0.4744    1.3608 H   0  0  0  0  0  0  0  0  0  0  0  0
    5.8117   -1.3958    4.5942 H   0  0  0  0  0  0  0  0  0  0  0  0
    5.2585   -3.9841    4.6402 H   0  0  0  0  0  0  0  0  0  0  0  0
    5.8625   -3.1018    5.9769 H   0  0  0  0  0  0  0  0  0  0  0  0
    4.1659   -3.8507    7.1241 H   0  0  0  0  0  0  0  0  0  0  0  0
    3.2967   -5.4424    6.0410 H   0  0  0  0  0  0  0  0  0  0  0  0
    1.9104   -4.4424    6.2265 H   0  0  0  0  0  0  0  0  0  0  0  0
    3.6927   -4.8151    3.6720 H   0  0  0  0  0  0  0  0  0  0  0  0
    3.5111   -6.6885    2.7375 H   0  0  0  0  0  0  0  0  0  0  0  0
   -0.1614   -9.9559    2.2289 H   0  0  0  0  0  0  0  0  0  0  0  0
   -2.4886   -9.0895    3.5333 H   0  0  0  0  0  0  0  0  0  0  0  0
    1.2486   -3.5955    2.8834 H   0  0  0  0  0  0  0  0  0  0  0  0
    0.9621   -1.0194    4.2326 H   0  0  0  0  0  0  0  0  0  0  0  0
    1.2488   -1.7924    5.5147 H   0  0  0  0  0  0  0  0  0  0  0  0
    3.9772    1.4384    6.0397 H   0  0  0  0  0  0  0  0  0  0  0  0
    4.1609    1.2476    4.4799 H   0  0  0  0  0  0  0  0  0  0  0  0
    2.2225    2.6826    6.1002 H   0  0  0  0  0  0  0  0  0  0  0  0
    2.4199    2.8454    4.3782 H   0  0  0  0  0  0  0  0  0  0  0  0
    0.1813    2.0365    5.1791 H   0  0  0  0  0  0  0  0  0  0  0  0
    0.8182    1.0951    7.1571 H   0  0  0  0  0  0  0  0  0  0  0  0
   -0.6879   -1.0577    5.7791 H   0  0  0  0  0  0  0  0  0  0  0  0
   -0.3874   -0.9858    7.5070 H   0  0  0  0  0  0  0  0  0  0  0  0
   -1.4902    1.0883    5.9400 H   0  0  0  0  0  0  0  0  0  0  0  0
    2.3815    0.1232    8.9665 H   0  0  0  0  0  0  0  0  0  0  0  0
    2.7779    1.4800    7.9336 H   0  0  0  0  0  0  0  0  0  0  0  0
    3.9636    0.2527    8.2486 H   0  0  0  0  0  0  0  0  0  0  0  0
    3.7305   -1.8848    7.8591 H   0  0  0  0  0  0  0  0  0  0  0  0
    4.8666   -0.5132    6.4018 H   0  0  0  0  0  0  0  0  0  0  0  0
  1  2  1  0
  1 39  1  0
  1 40  1  0
  1 41  1  0
  2 31  1  0
  2  3  1  0
  2 42  1  6
  3  9  1  0
  3  4  1  0
  3 43  1  6
  4  5  1  0
  4 44  1  0
  4 45  1  0
  5 25  1  0
  5  6  1  6
  5  7  1  0
  6 46  1  0
  6 47  1  0
  6 48  1  0
  7  8  1  0
  7 10  1  0
  7 49  1  6
  8  9  1  0
  8 50  1  0
  8 51  1  0
 10 38  1  0
 10 11  1  0
 10 52  1  6
 11 12  1  0
 11 53  1  0
 11 54  1  0
 12 37  1  0
 12 13  1  0
 12 55  1  1
 13 14  1  0
 13 56  1  0
 13 57  1  0
 14 15  1  0
 14 25  1  0
 14 58  1  6
 15 23  1  0
 15 16  1  0
 16 17  2  0
 16 59  1  0
 17 18  1  0
 18 22  1  0
 18 19  2  0
 19 20  1  0
 19 60  1  0
 20 21  2  0
 20 61  1  0
 21 22  1  0
 22 23  1  0
 23 24  2  0
 25 26  1  0
 25 62  1  6
 26 27  1  0
 28 27  1  6
 27 63  1  0
 27 64  1  0
 28 35  1  0
 28 38  1  0
 28 29  1  0
 29 30  1  0
 29 65  1  0
 29 66  1  0
 30 31  1  0
 30 67  1  0
 30 68  1  0
 31 32  1  0
 31 69  1  1
 32 33  1  0
 32 35  1  0
 32 70  1  1
 33 34  1  0
 33 71  1  0
 33 72  1  0
 34 73  1  0
 35 36  1  1
 35 37  1  0
 36 74  1  0
 36 75  1  0
 36 76  1  0
 37 38  1  0
 37 77  1  1
 38 78  1  1
M  END
>  <i_m_ct_stereo_status>  (179) 
1

>  <s_m_source_file>  (179) 
/var/tmp/pbs.5076255.sched01/tmp2djcgp0g/84b3bpyveh.sdf

>  <i_m_source_file_index>  (179) 
20

>  <i_lp_mmshare_version>  (179) 
48012

>  <i_f3d_flags>  (179) 
0

>  <s_epik_input>  (179) 
W0NAXTEyM0M0KFtDSDNdKVtDQEhdNVtDQEBIXTZbQ0gyXVtDQEhdKFtDQEBIXTM1KVtDQEhdN1tDQF0oW0NIM10pKFtDSDJdW0NIXShPW0NIMl03KVtDQEBIXShbQ0gzXSlbQ0BIXShbQ0gyXVtDSDJdMilbQ0BIXTRbQ0gyXVtPSF0pW0NASF0oT1tDSDJdMSlbQ0BASF0oW0NIMl02KW4oW2NIXW44KWMoPU8pbihjODkpbltjSF1bY0hdOQ==

>  <s_epik_cmdline>  (179) 
J2VwaWtfcHl0aG9uJywgJy1waHQnLCAnMi4wJywgJy1waCcsICc3LjAnLCAnLXRuJywgJzgnLCAnLW1hJywgJzIwMCcsICctaW1hZScsICc8aW5maWxlLm1hZT4nLCAnLW9tYWUnLCAnPG91dGZpbGUubWFlPic=

>  <r_lp_tautomer_probability>  (179) 
1

>  <r_epik_Ionization_Penalty>  (179) 
1.00604e-06

>  <r_epik_Ionization_Penalty_Charging>  (179) 
5.78032e-11

>  <r_epik_Ionization_Penalty_Neutral>  (179) 
1.00598e-06

>  <r_epik_State_Penalty>  (179) 
-0

>  <r_epik_Charging_Adjusted_Penalty>  (179) 
5.78032e-11

>  <i_epik_Tot_Q>  (179) 
0

>  <i_epik_Tot_abs_Q>  (179) 
0

>  <s_lp_Force_Field>  (179) 
OPLS3e

>  <r_lp_Energy>  (179) 
410.593

>  <b_lp_Chiralities_Consistent>  (179) 
1

>  <s_lp_Variant>  (179) 
62:0-1

>  <s_i_glide_gridfile>  (179) 
pfpi4k_grid

>  <i_i_glide_lignum>  (179) 
20

>  <i_i_glide_rotatable_bonds>  (179) 
3

>  <r_i_docking_score>  (179) 
-2.16019

>  <r_i_glide_ligand_efficiency>  (179) 
-0.0568472

>  <r_i_glide_ligand_efficiency_sa>  (179) 
-0.191119

>  <r_i_glide_ligand_efficiency_ln>  (179) 
-0.465801

>  <r_i_glide_gscore>  (179) 
-2.16019

>  <r_i_glide_lipo>  (179) 
-0.147702

>  <r_i_glide_hbond>  (179) 
-0.16

>  <r_i_glide_metal>  (179) 
-0

>  <r_i_glide_rewards>  (179) 
0

>  <r_i_glide_evdw>  (179) 
-25.898

>  <r_i_glide_ecoul>  (179) 
-4.02578

>  <r_i_glide_erotb>  (179) 
0.151629

>  <r_i_glide_esite>  (179) 
-0.105351

>  <r_i_glide_emodel>  (179) 
-34.043

>  <r_i_glide_energy>  (179) 
-29.9238

>  <r_i_glide_einternal>  (179) 
0.465879

>  <r_i_glide_intrahb_reward>  (179) 
-0

>  <i_i_glide_confnum>  (179) 
4

>  <i_i_glide_posenum>  (179) 
39

>  <r_i_glide_eff_state_penalty>  (179) 
0

>  <ligand_id>  (179) 
62

>  <original_smiles>  (179) 
CC1C2CC3(C)C(CO2)C2CC4CC(n5cnc6ccnn6c5=O)C3OCC35CCC1C(CO)C3(C)C4C25

>  <smiles>  (179) 
[H]OC([H])([H])C1([H])C2([H])C([H])([H])C([H])([H])C34C([H])([H])OC5([H])C([H])(n6c([H])nc7c([H])c([H])nn7c6=O)C([H])([H])C6([H])C([H])([H])C([H])(C7([H])C([H])([H])OC([H])(C([H])([H])C57C([H])([H])[H])C2([H])C([H])([H])[H])C3([H])C6([H])C14C([H])([H])[H]

$$$$
62:0:1
     RDKit          3D

 78 86  0  0  1  0  0  0  0  0999 V2000
   -0.6768   -8.4218    2.4819 C   0  0  0  0  0  0  0  0  0  0  0  0
   -0.1087   -9.0978    3.7518 C   0  0  2  0  0  0  0  0  0  0  0  0
   -0.2565   -8.1113    5.0819 C   0  0  2  0  0  0  0  0  0  0  0  0
    0.0148   -6.5393    5.1429 C   0  0  0  0  0  0  0  0  0  0  0  0
    1.3291   -5.9517    5.8752 C   0  0  1  0  0  0  0  0  0  0  0  0
    0.8472   -4.6624    6.5948 C   0  0  0  0  0  0  0  0  0  0  0  0
    1.8959   -6.9597    6.9687 C   0  0  1  0  0  0  0  0  0  0  0  0
    0.6977   -7.8788    7.3729 C   0  0  0  0  0  0  0  0  0  0  0  0
    0.0562   -8.6729    6.3531 O   0  0  0  0  0  0  0  0  0  0  0  0
    3.3843   -7.6299    7.0406 C   0  0  2  0  0  0  0  0  0  0  0  0
    4.6158   -6.7517    6.9460 C   0  0  0  0  0  0  0  0  0  0  0  0
    5.1350   -6.9012    5.4861 C   0  0  2  0  0  0  0  0  0  0  0  0
    4.9709   -5.5451    4.7387 C   0  0  0  0  0  0  0  0  0  0  0  0
    3.6621   -4.6772    5.0669 C   0  0  1  0  0  0  0  0  0  0  0  0
    3.7168   -3.3937    4.3160 N   0  0  0  0  0  0  0  0  0  0  0  0
    3.7488   -2.1797    5.0545 C   0  0  0  0  0  0  0  0  0  0  0  0
    3.7741   -0.9794    4.5391 N   0  0  0  0  0  0  0  0  0  0  0  0
    3.7783   -0.9671    3.1536 C   0  0  0  0  0  0  0  0  0  0  0  0
    3.7945    0.1368    2.3531 C   0  0  0  0  0  0  0  0  0  0  0  0
    3.7988   -0.4447    1.0387 C   0  0  0  0  0  0  0  0  0  0  0  0
    3.7873   -1.7746    1.0463 N   0  0  0  0  0  0  0  0  0  0  0  0
    3.7654   -2.0741    2.3599 N   0  0  0  0  0  0  0  0  0  0  0  0
    3.7225   -3.3702    2.9482 C   0  0  0  0  0  0  0  0  0  0  0  0
    3.6706   -4.3429    2.1965 O   0  0  0  0  0  0  0  0  0  0  0  0
    2.3177   -5.4411    4.7907 C   0  0  1  0  0  0  0  0  0  0  0  0
    2.8729   -6.4868    4.1263 O   0  0  0  0  0  0  0  0  0  0  0  0
    2.3742   -7.7420    4.2080 C   0  0  0  0  0  0  0  0  0  0  0  0
    2.8722   -9.0563    5.0618 C   0  0  1  0  0  0  0  0  0  0  0  0
    2.0501  -10.2890    5.6090 C   0  0  0  0  0  0  0  0  0  0  0  0
    1.2311  -11.0522    4.5913 C   0  0  0  0  0  0  0  0  0  0  0  0
    1.1371  -10.1426    3.3870 C   0  0  2  0  0  0  0  0  0  0  0  0
    2.7360   -9.8978    2.9052 C   0  0  1  0  0  0  0  0  0  0  0  0
    2.8851   -9.2116    1.5112 C   0  0  0  0  0  0  0  0  0  0  0  0
    4.1506   -9.4454    0.9359 O   0  0  0  0  0  0  0  0  0  0  0  0
    3.8701   -9.5887    4.1267 C   0  0  2  0  0  0  0  0  0  0  0  0
    4.6204  -10.9494    4.2934 C   0  0  0  0  0  0  0  0  0  0  0  0
    4.8317   -8.4104    4.9273 C   0  0  2  0  0  0  0  0  0  0  0  0
    3.8453   -8.7282    6.0762 C   0  0  1  0  0  0  0  0  0  0  0  0
   -0.0194   -7.6529    2.0824 H   0  0  0  0  0  0  0  0  0  0  0  0
   -1.6441   -7.9585    2.6829 H   0  0  0  0  0  0  0  0  0  0  0  0
   -0.8462   -9.1492    1.6863 H   0  0  0  0  0  0  0  0  0  0  0  0
   -0.9054   -9.8099    3.9475 H   0  0  0  0  0  0  0  0  0  0  0  0
   -1.3392   -8.1160    5.1554 H   0  0  0  0  0  0  0  0  0  0  0  0
   -0.1002   -6.1150    4.1514 H   0  0  0  0  0  0  0  0  0  0  0  0
   -0.8509   -6.1284    5.6858 H   0  0  0  0  0  0  0  0  0  0  0  0
    1.6554   -4.1474    7.1150 H   0  0  0  0  0  0  0  0  0  0  0  0
    0.0866   -4.8815    7.3446 H   0  0  0  0  0  0  0  0  0  0  0  0
    0.4084   -3.9466    5.8964 H   0  0  0  0  0  0  0  0  0  0  0  0
    1.9953   -6.3267    7.8483 H   0  0  0  0  0  0  0  0  0  0  0  0
    1.0017   -8.5447    8.1772 H   0  0  0  0  0  0  0  0  0  0  0  0
   -0.0909   -7.2500    7.7908 H   0  0  0  0  0  0  0  0  0  0  0  0
    3.4132   -8.0604    8.0458 H   0  0  0  0  0  0  0  0  0  0  0  0
    4.5101   -5.7579    7.3707 H   0  0  0  0  0  0  0  0  0  0  0  0
    5.3736   -7.2148    7.5811 H   0  0  0  0  0  0  0  0  0  0  0  0
    6.2229   -6.9081    5.5991 H   0  0  0  0  0  0  0  0  0  0  0  0
    5.8159   -4.9235    5.0165 H   0  0  0  0  0  0  0  0  0  0  0  0
    5.1165   -5.7356    3.6763 H   0  0  0  0  0  0  0  0  0  0  0  0
    3.6540   -4.4022    6.1229 H   0  0  0  0  0  0  0  0  0  0  0  0
    3.7423   -2.3210    6.1311 H   0  0  0  0  0  0  0  0  0  0  0  0
    3.8081    1.1735    2.6474 H   0  0  0  0  0  0  0  0  0  0  0  0
    3.8196    0.0371    0.0756 H   0  0  0  0  0  0  0  0  0  0  0  0
    1.7317   -4.8636    4.0740 H   0  0  0  0  0  0  0  0  0  0  0  0
    1.5983   -7.7415    3.4962 H   0  0  0  0  0  0  0  0  0  0  0  0
    3.1158   -7.6670    3.4170 H   0  0  0  0  0  0  0  0  0  0  0  0
    2.7483  -11.0485    5.9549 H   0  0  0  0  0  0  0  0  0  0  0  0
    1.5875  -10.1732    6.5750 H   0  0  0  0  0  0  0  0  0  0  0  0
    1.7269  -11.9851    4.3131 H   0  0  0  0  0  0  0  0  0  0  0  0
    0.2666  -11.3427    5.0084 H   0  0  0  0  0  0  0  0  0  0  0  0
    0.7143  -10.7582    2.5930 H   0  0  0  0  0  0  0  0  0  0  0  0
    2.9565  -10.9195    2.5823 H   0  0  0  0  0  0  0  0  0  0  0  0
    2.1371   -9.6528    0.8647 H   0  0  0  0  0  0  0  0  0  0  0  0
    2.6697   -8.1401    1.4558 H   0  0  0  0  0  0  0  0  0  0  0  0
    4.2206  -10.3934    0.7554 H   0  0  0  0  0  0  0  0  0  0  0  0
    5.3761  -11.0801    3.5170 H   0  0  0  0  0  0  0  0  0  0  0  0
    3.9802  -11.8295    4.2538 H   0  0  0  0  0  0  0  0  0  0  0  0
    5.1519  -11.0278    5.2395 H   0  0  0  0  0  0  0  0  0  0  0  0
    5.7714   -8.9442    5.0494 H   0  0  0  0  0  0  0  0  0  0  0  0
    4.2270   -9.5935    6.6118 H   0  0  0  0  0  0  0  0  0  0  0  0
  1  2  1  0
  1 39  1  0
  1 40  1  0
  1 41  1  0
  2 31  1  0
  2  3  1  0
  2 42  1  1
  3  9  1  0
  3  4  1  0
  3 43  1  1
  4  5  1  0
  4 44  1  0
  4 45  1  0
  5 25  1  0
  5  6  1  1
  5  7  1  0
  6 46  1  0
  6 47  1  0
  6 48  1  0
  7  8  1  0
  7 10  1  0
  7 49  1  1
  8  9  1  0
  8 50  1  0
  8 51  1  0
 10 38  1  0
 10 11  1  0
 10 52  1  1
 11 12  1  0
 11 53  1  0
 11 54  1  0
 12 37  1  0
 12 13  1  0
 12 55  1  1
 13 14  1  0
 13 56  1  0
 13 57  1  0
 14 15  1  0
 14 25  1  0
 14 58  1  1
 15 23  1  0
 15 16  1  0
 16 17  2  0
 16 59  1  0
 17 18  1  0
 18 22  1  0
 18 19  2  0
 19 20  1  0
 19 60  1  0
 20 21  2  0
 20 61  1  0
 21 22  1  0
 22 23  1  0
 23 24  2  0
 25 26  1  0
 25 62  1  6
 26 27  1  0
 28 27  1  6
 27 63  1  0
 27 64  1  0
 28 35  1  0
 28 38  1  0
 28 29  1  0
 29 30  1  0
 29 65  1  0
 29 66  1  0
 30 31  1  0
 30 67  1  0
 30 68  1  0
 31 32  1  0
 31 69  1  6
 32 33  1  0
 32 35  1  0
 32 70  1  6
 33 34  1  0
 33 71  1  0
 33 72  1  0
 34 73  1  0
 35 36  1  1
 35 37  1  0
 36 74  1  0
 36 75  1  0
 36 76  1  0
 37 38  1  0
 37 77  1  1
 38 78  1  1
M  END
>  <i_m_ct_stereo_status>  (180) 
1

>  <s_m_source_file>  (180) 
/var/tmp/pbs.5076255.sched01/tmp2djcgp0g/84b3bpyveh.sdf

>  <i_m_source_file_index>  (180) 
20

>  <i_lp_mmshare_version>  (180) 
48012

>  <i_f3d_flags>  (180) 
0

>  <s_epik_input>  (180) 
W0NAXTEyM0M0KFtDSDNdKVtDQEhdNVtDQEBIXTZbQ0gyXVtDQEhdKFtDQEBIXTM1KVtDQEhdN1tDQF0oW0NIM10pKFtDSDJdW0NIXShPW0NIMl03KVtDQEBIXShbQ0gzXSlbQ0BIXShbQ0gyXVtDSDJdMilbQ0BIXTRbQ0gyXVtPSF0pW0NASF0oT1tDSDJdMSlbQ0BASF0oW0NIMl02KW4oW2NIXW44KWMoPU8pbihjODkpbltjSF1bY0hdOQ==

>  <s_epik_cmdline>  (180) 
J2VwaWtfcHl0aG9uJywgJy1waHQnLCAnMi4wJywgJy1waCcsICc3LjAnLCAnLXRuJywgJzgnLCAnLW1hJywgJzIwMCcsICctaW1hZScsICc8aW5maWxlLm1hZT4nLCAnLW9tYWUnLCAnPG91dGZpbGUubWFlPic=

>  <r_lp_tautomer_probability>  (180) 
1

>  <r_epik_Ionization_Penalty>  (180) 
1.00604e-06

>  <r_epik_Ionization_Penalty_Charging>  (180) 
5.78032e-11

>  <r_epik_Ionization_Penalty_Neutral>  (180) 
1.00598e-06

>  <r_epik_State_Penalty>  (180) 
-0

>  <r_epik_Charging_Adjusted_Penalty>  (180) 
5.78032e-11

>  <i_epik_Tot_Q>  (180) 
0

>  <i_epik_Tot_abs_Q>  (180) 
0

>  <s_lp_Force_Field>  (180) 
OPLS3e

>  <r_lp_Energy>  (180) 
410.593

>  <b_lp_Chiralities_Consistent>  (180) 
1

>  <s_lp_Variant>  (180) 
62:0-1

>  <s_i_glide_gridfile>  (180) 
pfpi4k_grid

>  <i_i_glide_lignum>  (180) 
20

>  <i_i_glide_rotatable_bonds>  (180) 
3

>  <r_i_docking_score>  (180) 
-1.97916

>  <r_i_glide_ligand_efficiency>  (180) 
-0.0520832

>  <r_i_glide_ligand_efficiency_sa>  (180) 
-0.175103

>  <r_i_glide_ligand_efficiency_ln>  (180) 
-0.426766

>  <r_i_glide_gscore>  (180) 
-1.97916

>  <r_i_glide_lipo>  (180) 
-0.129786

>  <r_i_glide_hbond>  (180) 
-0.16

>  <r_i_glide_metal>  (180) 
-0

>  <r_i_glide_rewards>  (180) 
-0.012641

>  <r_i_glide_evdw>  (180) 
-24.3443

>  <r_i_glide_ecoul>  (180) 
-4.07162

>  <r_i_glide_erotb>  (180) 
0.151629

>  <r_i_glide_esite>  (180) 
-0.000405832

>  <r_i_glide_emodel>  (180) 
-32.3038

>  <r_i_glide_energy>  (180) 
-28.416

>  <r_i_glide_einternal>  (180) 
0.072625

>  <r_i_glide_intrahb_reward>  (180) 
-0

>  <i_i_glide_confnum>  (180) 
1

>  <i_i_glide_posenum>  (180) 
21

>  <r_i_glide_eff_state_penalty>  (180) 
0

>  <ligand_id>  (180) 
62

>  <original_smiles>  (180) 
CC1C2CC3(C)C(CO2)C2CC4CC(n5cnc6ccnn6c5=O)C3OCC35CCC1C(CO)C3(C)C4C25

>  <smiles>  (180) 
[H]OC([H])([H])C1([H])C2([H])C([H])([H])C([H])([H])C34C([H])([H])OC5([H])C([H])(n6c([H])nc7c([H])c([H])nn7c6=O)C([H])([H])C6([H])C([H])([H])C([H])(C7([H])C([H])([H])OC([H])(C([H])([H])C57C([H])([H])[H])C2([H])C([H])([H])[H])C3([H])C6([H])C14C([H])([H])[H]

$$$$
62:0:2
     RDKit          3D

 78 86  0  0  1  0  0  0  0  0999 V2000
   -2.8850    2.1466    7.5844 C   0  0  0  0  0  0  0  0  0  0  0  0
   -2.0553    3.3618    7.1256 C   0  0  2  0  0  0  0  0  0  0  0  0
   -1.8836    3.3951    5.4689 C   0  0  2  0  0  0  0  0  0  0  0  0
   -1.5736    2.1509    4.5153 C   0  0  0  0  0  0  0  0  0  0  0  0
   -0.1164    1.9534    3.8377 C   0  0  1  0  0  0  0  0  0  0  0  0
   -0.4001    1.4235    2.4058 C   0  0  0  0  0  0  0  0  0  0  0  0
    0.6826    3.3282    3.7300 C   0  0  1  0  0  0  0  0  0  0  0  0
   -0.4046    4.4543    3.7563 C   0  0  0  0  0  0  0  0  0  0  0  0
   -1.2853    4.5559    4.9022 O   0  0  0  0  0  0  0  0  0  0  0  0
    2.1425    3.6942    4.3764 C   0  0  2  0  0  0  0  0  0  0  0  0
    3.3228    2.7696    4.1534 C   0  0  0  0  0  0  0  0  0  0  0  0
    3.4852    1.9393    5.4613 C   0  0  2  0  0  0  0  0  0  0  0  0
    3.1552    0.4391    5.1677 C   0  0  0  0  0  0  0  0  0  0  0  0
    1.9756    0.1433    4.1294 C   0  0  1  0  0  0  0  0  0  0  0  0
    1.8702   -1.3264    3.9164 N   0  0  0  0  0  0  0  0  0  0  0  0
    2.2650   -1.8652    2.6748 C   0  0  0  0  0  0  0  0  0  0  0  0
    2.2183   -3.1359    2.3386 N   0  0  0  0  0  0  0  0  0  0  0  0
    1.7145   -3.9554    3.3292 C   0  0  0  0  0  0  0  0  0  0  0  0
    1.5192   -5.2995    3.2635 C   0  0  0  0  0  0  0  0  0  0  0  0
    0.9844   -5.6098    4.5486 C   0  0  0  0  0  0  0  0  0  0  0  0
    0.8453   -4.5416    5.3337 N   0  0  0  0  0  0  0  0  0  0  0  0
    1.3133   -3.5306    4.5673 N   0  0  0  0  0  0  0  0  0  0  0  0
    1.4007   -2.1543    4.9310 C   0  0  0  0  0  0  0  0  0  0  0  0
    1.0521   -1.8195    6.0399 O   0  0  0  0  0  0  0  0  0  0  0  0
    0.6014    0.7729    4.5457 C   0  0  1  0  0  0  0  0  0  0  0  0
    0.9629    1.1141    5.8084 O   0  0  0  0  0  0  0  0  0  0  0  0
    0.5070    2.2557    6.3779 C   0  0  0  0  0  0  0  0  0  0  0  0
    1.1867    3.7142    6.6694 C   0  0  1  0  0  0  0  0  0  0  0  0
    0.4921    5.1217    6.8511 C   0  0  0  0  0  0  0  0  0  0  0  0
   -0.5481    5.2022    7.9492 C   0  0  0  0  0  0  0  0  0  0  0  0
   -0.9297    3.7760    8.2781 C   0  0  2  0  0  0  0  0  0  0  0  0
    0.5025    3.0422    8.7766 C   0  0  1  0  0  0  0  0  0  0  0  0
    0.3510    1.6768    9.5438 C   0  0  0  0  0  0  0  0  0  0  0  0
   -0.1233    0.5453    8.8211 O   0  0  0  0  0  0  0  0  0  0  0  0
    1.9188    3.4074    7.9061 C   0  0  2  0  0  0  0  0  0  0  0  0
    2.6653    4.4841    8.7644 C   0  0  0  0  0  0  0  0  0  0  0  0
    3.0598    2.8543    6.7484 C   0  0  2  0  0  0  0  0  0  0  0  0
    2.3708    3.9361    5.8773 C   0  0  1  0  0  0  0  0  0  0  0  0
   -2.3335    1.2133    7.5142 H   0  0  0  0  0  0  0  0  0  0  0  0
   -3.7777    2.0550    6.9742 H   0  0  0  0  0  0  0  0  0  0  0  0
   -3.2143    2.2581    8.6196 H   0  0  0  0  0  0  0  0  0  0  0  0
   -2.7916    4.1498    7.2684 H   0  0  0  0  0  0  0  0  0  0  0  0
   -2.9234    3.5771    5.2045 H   0  0  0  0  0  0  0  0  0  0  0  0
   -1.9146    1.2347    4.9924 H   0  0  0  0  0  0  0  0  0  0  0  0
   -2.2856    2.2589    3.6868 H   0  0  0  0  0  0  0  0  0  0  0  0
    0.5133    1.2150    1.8457 H   0  0  0  0  0  0  0  0  0  0  0  0
   -0.9632    2.1547    1.8247 H   0  0  0  0  0  0  0  0  0  0  0  0
   -0.9906    0.5044    2.4258 H   0  0  0  0  0  0  0  0  0  0  0  0
    0.9971    3.3375    2.6877 H   0  0  0  0  0  0  0  0  0  0  0  0
    0.0749    5.4204    3.6007 H   0  0  0  0  0  0  0  0  0  0  0  0
   -1.0632    4.3081    2.8985 H   0  0  0  0  0  0  0  0  0  0  0  0
    2.3994    4.6263    3.8681 H   0  0  0  0  0  0  0  0  0  0  0  0
    3.3303    2.2542    3.1952 H   0  0  0  0  0  0  0  0  0  0  0  0
    4.1997    3.4144    4.1019 H   0  0  0  0  0  0  0  0  0  0  0  0
    4.5684    1.8653    5.5780 H   0  0  0  0  0  0  0  0  0  0  0  0
    4.0516    0.0018    4.7345 H   0  0  0  0  0  0  0  0  0  0  0  0
    3.0270   -0.0905    6.1123 H   0  0  0  0  0  0  0  0  0  0  0  0
    2.2188    0.5574    3.1521 H   0  0  0  0  0  0  0  0  0  0  0  0
    2.6371   -1.1265    1.9647 H   0  0  0  0  0  0  0  0  0  0  0  0
    1.7338   -5.9688    2.4298 H   0  0  0  0  0  0  0  0  0  0  0  0
    0.6837   -6.5669    4.9671 H   0  0  0  0  0  0  0  0  0  0  0  0
   -0.1473   -0.0145    4.6202 H   0  0  0  0  0  0  0  0  0  0  0  0
   -0.4215    1.9519    6.7501 H   0  0  0  0  0  0  0  0  0  0  0  0
    1.0310    1.6074    7.0628 H   0  0  0  0  0  0  0  0  0  0  0  0
    1.2408    5.8362    7.1898 H   0  0  0  0  0  0  0  0  0  0  0  0
    0.2552    5.6638    5.9469 H   0  0  0  0  0  0  0  0  0  0  0  0
   -0.1424    5.6942    8.8354 H   0  0  0  0  0  0  0  0  0  0  0  0
   -1.3848    5.8255    7.6493 H   0  0  0  0  0  0  0  0  0  0  0  0
   -1.5182    3.8424    9.1954 H   0  0  0  0  0  0  0  0  0  0  0  0
    0.6490    3.6139    9.6883 H   0  0  0  0  0  0  0  0  0  0  0  0
    1.3026    1.4003   10.0044 H   0  0  0  0  0  0  0  0  0  0  0  0
   -0.3768    1.8036   10.3529 H   0  0  0  0  0  0  0  0  0  0  0  0
    0.2884    0.5254    7.9692 H   0  0  0  0  0  0  0  0  0  0  0  0
    3.2232    4.0241    9.5794 H   0  0  0  0  0  0  0  0  0  0  0  0
    2.0220    5.2435    9.2105 H   0  0  0  0  0  0  0  0  0  0  0  0
    3.4018    5.0458    8.1866 H   0  0  0  0  0  0  0  0  0  0  0  0
    4.0037    3.2147    7.1597 H   0  0  0  0  0  0  0  0  0  0  0  0
    2.8588    4.8945    6.0607 H   0  0  0  0  0  0  0  0  0  0  0  0
  1  2  1  0
  1 39  1  0
  1 40  1  0
  1 41  1  0
  2 31  1  0
  2  3  1  0
  2 42  1  6
  3  9  1  0
  3  4  1  0
  3 43  1  6
  4  5  1  0
  4 44  1  0
  4 45  1  0
  5 25  1  0
  5  6  1  6
  5  7  1  0
  6 46  1  0
  6 47  1  0
  6 48  1  0
  7  8  1  0
  7 10  1  0
  7 49  1  6
  8  9  1  0
  8 50  1  0
  8 51  1  0
 10 38  1  0
 10 11  1  0
 10 52  1  6
 11 12  1  0
 11 53  1  0
 11 54  1  0
 12 37  1  0
 12 13  1  0
 12 55  1  1
 13 14  1  0
 13 56  1  0
 13 57  1  0
 14 15  1  0
 14 25  1  0
 14 58  1  6
 15 23  1  0
 15 16  1  0
 16 17  2  0
 16 59  1  0
 17 18  1  0
 18 22  1  0
 18 19  2  0
 19 20  1  0
 19 60  1  0
 20 21  2  0
 20 61  1  0
 21 22  1  0
 22 23  1  0
 23 24  2  0
 25 26  1  0
 25 62  1  1
 26 27  1  0
 28 27  1  6
 27 63  1  0
 27 64  1  0
 28 35  1  0
 28 38  1  0
 28 29  1  0
 29 30  1  0
 29 65  1  0
 29 66  1  0
 30 31  1  0
 30 67  1  0
 30 68  1  0
 31 32  1  0
 31 69  1  1
 32 33  1  0
 32 35  1  0
 32 70  1  1
 33 34  1  0
 33 71  1  0
 33 72  1  0
 34 73  1  0
 35 36  1  1
 35 37  1  0
 36 74  1  0
 36 75  1  0
 36 76  1  0
 37 38  1  0
 37 77  1  1
 38 78  1  6
M  END
>  <i_m_ct_stereo_status>  (181) 
1

>  <s_m_source_file>  (181) 
/var/tmp/pbs.5076255.sched01/tmp2djcgp0g/84b3bpyveh.sdf

>  <i_m_source_file_index>  (181) 
20

>  <i_lp_mmshare_version>  (181) 
48012

>  <i_f3d_flags>  (181) 
0

>  <s_epik_input>  (181) 
W0NAXTEyM0M0KFtDSDNdKVtDQEhdNVtDQEBIXTZbQ0gyXVtDQEhdKFtDQEBIXTM1KVtDQEhdN1tDQF0oW0NIM10pKFtDSDJdW0NIXShPW0NIMl03KVtDQEBIXShbQ0gzXSlbQ0BIXShbQ0gyXVtDSDJdMilbQ0BIXTRbQ0gyXVtPSF0pW0NASF0oT1tDSDJdMSlbQ0BASF0oW0NIMl02KW4oW2NIXW44KWMoPU8pbihjODkpbltjSF1bY0hdOQ==

>  <s_epik_cmdline>  (181) 
J2VwaWtfcHl0aG9uJywgJy1waHQnLCAnMi4wJywgJy1waCcsICc3LjAnLCAnLXRuJywgJzgnLCAnLW1hJywgJzIwMCcsICctaW1hZScsICc8aW5maWxlLm1hZT4nLCAnLW9tYWUnLCAnPG91dGZpbGUubWFlPic=

>  <r_lp_tautomer_probability>  (181) 
1

>  <r_epik_Ionization_Penalty>  (181) 
1.00604e-06

>  <r_epik_Ionization_Penalty_Charging>  (181) 
5.78032e-11

>  <r_epik_Ionization_Penalty_Neutral>  (181) 
1.00598e-06

>  <r_epik_State_Penalty>  (181) 
-0

>  <r_epik_Charging_Adjusted_Penalty>  (181) 
5.78032e-11

>  <i_epik_Tot_Q>  (181) 
0

>  <i_epik_Tot_abs_Q>  (181) 
0

>  <s_lp_Force_Field>  (181) 
OPLS3e

>  <r_lp_Energy>  (181) 
410.593

>  <b_lp_Chiralities_Consistent>  (181) 
1

>  <s_lp_Variant>  (181) 
62:0-1

>  <s_i_glide_gridfile>  (181) 
pfpi4k_grid

>  <i_i_glide_lignum>  (181) 
20

>  <i_i_glide_rotatable_bonds>  (181) 
3

>  <r_i_docking_score>  (181) 
-1.82567

>  <r_i_glide_ligand_efficiency>  (181) 
-0.0480439

>  <r_i_glide_ligand_efficiency_sa>  (181) 
-0.161522

>  <r_i_glide_ligand_efficiency_ln>  (181) 
-0.393668

>  <r_i_glide_gscore>  (181) 
-1.82567

>  <r_i_glide_lipo>  (181) 
-0.078709

>  <r_i_glide_hbond>  (181) 
-0.016649

>  <r_i_glide_metal>  (181) 
-0

>  <r_i_glide_rewards>  (181) 
-0.0195238

>  <r_i_glide_evdw>  (181) 
-22.7057

>  <r_i_glide_ecoul>  (181) 
-4.76476

>  <r_i_glide_erotb>  (181) 
0.151629

>  <r_i_glide_esite>  (181) 
-0.0124161

>  <r_i_glide_emodel>  (181) 
-29.4161

>  <r_i_glide_energy>  (181) 
-27.4705

>  <r_i_glide_einternal>  (181) 
2.38505

>  <r_i_glide_intrahb_reward>  (181) 
-0

>  <i_i_glide_confnum>  (181) 
4

>  <i_i_glide_posenum>  (181) 
4

>  <r_i_glide_eff_state_penalty>  (181) 
0

>  <ligand_id>  (181) 
62

>  <original_smiles>  (181) 
CC1C2CC3(C)C(CO2)C2CC4CC(n5cnc6ccnn6c5=O)C3OCC35CCC1C(CO)C3(C)C4C25

>  <smiles>  (181) 
[H]OC([H])([H])C1([H])C2([H])C([H])([H])C([H])([H])C34C([H])([H])OC5([H])C([H])(n6c([H])nc7c([H])c([H])nn7c6=O)C([H])([H])C6([H])C([H])([H])C([H])(C7([H])C([H])([H])OC([H])(C([H])([H])C57C([H])([H])[H])C2([H])C([H])([H])[H])C3([H])C6([H])C14C([H])([H])[H]

$$$$
62:1:0
     RDKit          3D

 78 86  0  0  1  0  0  0  0  0999 V2000
    0.8239   -5.6033    8.4313 C   0  0  0  0  0  0  0  0  0  0  0  0
    1.8002   -5.9237    7.2861 C   0  0  2  0  0  0  0  0  0  0  0  0
    2.5275   -4.5212    6.7747 C   0  0  2  0  0  0  0  0  0  0  0  0
    2.1997   -3.8052    5.3555 C   0  0  0  0  0  0  0  0  0  0  0  0
    3.3389   -3.4751    4.2719 C   0  0  1  0  0  0  0  0  0  0  0  0
    3.5085   -1.9224    4.2975 C   0  0  0  0  0  0  0  0  0  0  0  0
    4.6484   -4.0856    4.7762 C   0  0  1  0  0  0  0  0  0  0  0  0
    4.8233   -3.8424    6.2971 C   0  0  0  0  0  0  0  0  0  0  0  0
    3.9259   -4.6809    7.0193 O   0  0  0  0  0  0  0  0  0  0  0  0
    4.7052   -5.5905    4.4976 C   0  0  2  0  0  0  0  0  0  0  0  0
    5.6923   -6.2253    3.5014 C   0  0  0  0  0  0  0  0  0  0  0  0
    4.7491   -7.0019    2.5874 C   0  0  2  0  0  0  0  0  0  0  0  0
    4.5284   -5.9251    1.4519 C   0  0  0  0  0  0  0  0  0  0  0  0
    4.2370   -4.3736    1.7397 C   0  0  1  0  0  0  0  0  0  0  0  0
    4.1781   -3.6469    0.4307 N   0  0  0  0  0  0  0  0  0  0  0  0
    5.2307   -2.7356    0.1091 C   0  0  0  0  0  0  0  0  0  0  0  0
    5.3184   -2.0162   -0.9764 N   0  0  0  0  0  0  0  0  0  0  0  0
    4.2576   -2.2048   -1.8446 C   0  0  0  0  0  0  0  0  0  0  0  0
    4.0674   -1.5883   -3.0500 C   0  0  0  0  0  0  0  0  0  0  0  0
    2.8318   -2.1646   -3.4898 C   0  0  0  0  0  0  0  0  0  0  0  0
    2.3319   -3.0582   -2.6522 N   0  0  0  0  0  0  0  0  0  0  0  0
    3.2140   -3.0632   -1.6370 N   0  0  0  0  0  0  0  0  0  0  0  0
    3.1533   -3.8352   -0.4464 C   0  0  0  0  0  0  0  0  0  0  0  0
    2.1947   -4.6022   -0.3162 O   0  0  0  0  0  0  0  0  0  0  0  0
    3.0763   -3.8768    2.7197 C   0  0  1  0  0  0  0  0  0  0  0  0
    1.8218   -4.4647    2.4234 O   0  0  0  0  0  0  0  0  0  0  0  0
    1.7240   -5.8739    2.2708 C   0  0  0  0  0  0  0  0  0  0  0  0
    1.8933   -6.4703    3.6472 C   0  0  1  0  0  0  0  0  0  0  0  0
    0.3326   -6.2719    4.0689 C   0  0  0  0  0  0  0  0  0  0  0  0
   -0.1159   -6.6317    5.5033 C   0  0  0  0  0  0  0  0  0  0  0  0
    1.1248   -6.9824    6.2729 C   0  0  2  0  0  0  0  0  0  0  0  0
    1.8039   -8.2546    5.5000 C   0  0  1  0  0  0  0  0  0  0  0  0
    1.0105   -9.5743    5.7358 C   0  0  0  0  0  0  0  0  0  0  0  0
    0.9018   -9.8490    7.1212 O   0  0  0  0  0  0  0  0  0  0  0  0
    2.2074   -7.9383    3.9209 C   0  0  1  0  0  0  0  0  0  0  0  0
    1.6638   -8.9776    2.9298 C   0  0  0  0  0  0  0  0  0  0  0  0
    3.7270   -7.5608    3.6858 C   0  0  2  0  0  0  0  0  0  0  0  0
    3.3777   -6.3710    4.4651 C   0  0  1  0  0  0  0  0  0  0  0  0
    0.0007   -4.9717    8.0956 H   0  0  0  0  0  0  0  0  0  0  0  0
    1.3324   -5.0774    9.2421 H   0  0  0  0  0  0  0  0  0  0  0  0
    0.4030   -6.5166    8.8525 H   0  0  0  0  0  0  0  0  0  0  0  0
    2.5932   -6.4890    7.7755 H   0  0  0  0  0  0  0  0  0  0  0  0
    2.2562   -3.7609    7.5115 H   0  0  0  0  0  0  0  0  0  0  0  0
    1.3727   -4.2627    4.8671 H   0  0  0  0  0  0  0  0  0  0  0  0
    1.7011   -2.8730    5.6138 H   0  0  0  0  0  0  0  0  0  0  0  0
    4.3766   -1.5961    3.7220 H   0  0  0  0  0  0  0  0  0  0  0  0
    3.6274   -1.5206    5.3056 H   0  0  0  0  0  0  0  0  0  0  0  0
    2.6358   -1.4059    3.8893 H   0  0  0  0  0  0  0  0  0  0  0  0
    5.4963   -3.6017    4.2928 H   0  0  0  0  0  0  0  0  0  0  0  0
    5.8395   -4.1139    6.5862 H   0  0  0  0  0  0  0  0  0  0  0  0
    4.7203   -2.7998    6.5878 H   0  0  0  0  0  0  0  0  0  0  0  0
    5.2160   -5.9485    5.3949 H   0  0  0  0  0  0  0  0  0  0  0  0
    6.3961   -5.5378    3.0257 H   0  0  0  0  0  0  0  0  0  0  0  0
    6.3236   -6.9491    4.0261 H   0  0  0  0  0  0  0  0  0  0  0  0
    5.2787   -7.8458    2.1385 H   0  0  0  0  0  0  0  0  0  0  0  0
    5.5050   -5.8923    0.9658 H   0  0  0  0  0  0  0  0  0  0  0  0
    3.9656   -6.3365    0.6224 H   0  0  0  0  0  0  0  0  0  0  0  0
    5.1384   -3.9847    2.2047 H   0  0  0  0  0  0  0  0  0  0  0  0
    6.0099   -2.6715    0.8751 H   0  0  0  0  0  0  0  0  0  0  0  0
    4.6896   -0.8434   -3.5344 H   0  0  0  0  0  0  0  0  0  0  0  0
    2.2543   -1.9703   -4.3843 H   0  0  0  0  0  0  0  0  0  0  0  0
    2.8352   -2.9028    2.2946 H   0  0  0  0  0  0  0  0  0  0  0  0
    0.7250   -6.0286    1.8525 H   0  0  0  0  0  0  0  0  0  0  0  0
    2.2403   -6.3981    1.4995 H   0  0  0  0  0  0  0  0  0  0  0  0
   -0.0471   -5.2732    3.8524 H   0  0  0  0  0  0  0  0  0  0  0  0
   -0.2988   -6.9019    3.4385 H   0  0  0  0  0  0  0  0  0  0  0  0
   -0.6703   -5.8134    5.9614 H   0  0  0  0  0  0  0  0  0  0  0  0
   -0.7929   -7.4857    5.4706 H   0  0  0  0  0  0  0  0  0  0  0  0
    1.5288   -6.1523    5.8219 H   0  0  0  0  0  0  0  0  0  0  0  0
    2.7215   -8.4839    6.0420 H   0  0  0  0  0  0  0  0  0  0  0  0
    0.0112   -9.5521    5.3011 H   0  0  0  0  0  0  0  0  0  0  0  0
    1.5329  -10.4176    5.2846 H   0  0  0  0  0  0  0  0  0  0  0  0
    1.0089  -10.8086    7.2731 H   0  0  0  0  0  0  0  0  0  0  0  0
    2.0857   -9.9700    3.1043 H   0  0  0  0  0  0  0  0  0  0  0  0
    1.9343   -8.7145    1.9055 H   0  0  0  0  0  0  0  0  0  0  0  0
    0.5742   -9.0545    2.9579 H   0  0  0  0  0  0  0  0  0  0  0  0
    4.2669   -8.2717    4.3100 H   0  0  0  0  0  0  0  0  0  0  0  0
    3.4115   -6.6476    5.5018 H   0  0  0  0  0  0  0  0  0  0  0  0
  1  2  1  0
  1 39  1  0
  1 40  1  0
  1 41  1  0
  2 31  1  0
  2  3  1  0
  2 42  1  1
  3  9  1  0
  3  4  1  0
  3 43  1  1
  4  5  1  0
  4 44  1  0
  4 45  1  0
  5 25  1  0
  5  6  1  6
  5  7  1  0
  6 46  1  0
  6 47  1  0
  6 48  1  0
  7  8  1  0
  7 10  1  0
  7 49  1  6
  8  9  1  0
  8 50  1  0
  8 51  1  0
 10 38  1  0
 10 11  1  0
 10 52  1  1
 11 12  1  0
 11 53  1  0
 11 54  1  0
 12 37  1  0
 12 13  1  0
 12 55  1  6
 13 14  1  0
 13 56  1  0
 13 57  1  0
 14 15  1  0
 14 25  1  0
 14 58  1  1
 15 23  1  0
 15 16  1  0
 16 17  2  0
 16 59  1  0
 17 18  1  0
 18 22  1  0
 18 19  2  0
 19 20  1  0
 19 60  1  0
 20 21  2  0
 20 61  1  0
 21 22  1  0
 22 23  1  0
 23 24  2  0
 25 26  1  0
 25 62  1  6
 26 27  1  0
 28 27  1  6
 27 63  1  0
 27 64  1  0
 28 35  1  0
 28 38  1  0
 28 29  1  0
 29 30  1  0
 29 65  1  0
 29 66  1  0
 30 31  1  0
 30 67  1  0
 30 68  1  0
 31 32  1  0
 31 69  1  1
 32 33  1  0
 32 35  1  0
 32 70  1  1
 33 34  1  0
 33 71  1  0
 33 72  1  0
 34 73  1  0
 35 36  1  6
 35 37  1  0
 36 74  1  0
 36 75  1  0
 36 76  1  0
 37 38  1  0
 37 77  1  1
 38 78  1  1
M  END
>  <i_m_ct_stereo_status>  (182) 
1

>  <s_m_source_file>  (182) 
/var/tmp/pbs.5076255.sched01/tmp2djcgp0g/84b3bpyveh.sdf

>  <i_m_source_file_index>  (182) 
21

>  <i_lp_mmshare_version>  (182) 
48012

>  <i_f3d_flags>  (182) 
0

>  <s_epik_input>  (182) 
W0NAXTEyM0M0KFtDSDNdKVtDQEhdNVtDQEBIXTZbQ0gyXVtDQEhdKFtDQEBIXTM1KVtDQEhdN1tDQF0oW0NIM10pKFtDSDJdW0NIXShPW0NIMl03KVtDQEBIXShbQ0gzXSlbQ0BIXShbQ0gyXVtDSDJdMilbQ0BIXTRbQ0gyXVtPSF0pW0NASF0oT1tDSDJdMSlbQ0BASF0oW0NIMl02KW4oW2NIXW44KWMoPU8pbihjODkpbltjSF1bY0hdOQ==

>  <s_epik_cmdline>  (182) 
J2VwaWtfcHl0aG9uJywgJy1waHQnLCAnMi4wJywgJy1waCcsICc3LjAnLCAnLXRuJywgJzgnLCAnLW1hJywgJzIwMCcsICctaW1hZScsICc8aW5maWxlLm1hZT4nLCAnLW9tYWUnLCAnPG91dGZpbGUubWFlPic=

>  <r_lp_tautomer_probability>  (182) 
1

>  <r_epik_Ionization_Penalty>  (182) 
1.00604e-06

>  <r_epik_Ionization_Penalty_Charging>  (182) 
5.78032e-11

>  <r_epik_Ionization_Penalty_Neutral>  (182) 
1.00598e-06

>  <r_epik_State_Penalty>  (182) 
-0

>  <r_epik_Charging_Adjusted_Penalty>  (182) 
5.78032e-11

>  <i_epik_Tot_Q>  (182) 
0

>  <i_epik_Tot_abs_Q>  (182) 
0

>  <s_lp_Force_Field>  (182) 
OPLS3e

>  <r_lp_Energy>  (182) 
345.694

>  <b_lp_Chiralities_Consistent>  (182) 
1

>  <s_lp_Variant>  (182) 
62:0-2

>  <s_i_glide_gridfile>  (182) 
pfpi4k_grid

>  <i_i_glide_lignum>  (182) 
21

>  <i_i_glide_rotatable_bonds>  (182) 
3

>  <r_i_docking_score>  (182) 
-2.43254

>  <r_i_glide_ligand_efficiency>  (182) 
-0.0640141

>  <r_i_glide_ligand_efficiency_sa>  (182) 
-0.215214

>  <r_i_glide_ligand_efficiency_ln>  (182) 
-0.524526

>  <r_i_glide_gscore>  (182) 
-2.43254

>  <r_i_glide_lipo>  (182) 
-0.318872

>  <r_i_glide_hbond>  (182) 
-0.16

>  <r_i_glide_metal>  (182) 
-0

>  <r_i_glide_rewards>  (182) 
-0.0814804

>  <r_i_glide_evdw>  (182) 
-27.3249

>  <r_i_glide_ecoul>  (182) 
-4.20716

>  <r_i_glide_erotb>  (182) 
0.151629

>  <r_i_glide_esite>  (182) 
-0.0264935

>  <r_i_glide_emodel>  (182) 
-35.8572

>  <r_i_glide_energy>  (182) 
-31.5321

>  <r_i_glide_einternal>  (182) 
1.32296

>  <r_i_glide_intrahb_reward>  (182) 
-0

>  <i_i_glide_confnum>  (182) 
4

>  <i_i_glide_posenum>  (182) 
29

>  <r_i_glide_eff_state_penalty>  (182) 
0

>  <ligand_id>  (182) 
62

>  <original_smiles>  (182) 
CC1C2CC3(C)C(CO2)C2CC4CC(n5cnc6ccnn6c5=O)C3OCC35CCC1C(CO)C3(C)C4C25

>  <smiles>  (182) 
[H]OC([H])([H])C1([H])C2([H])C([H])([H])C([H])([H])C34C([H])([H])OC5([H])C([H])(n6c([H])nc7c([H])c([H])nn7c6=O)C([H])([H])C6([H])C([H])([H])C([H])(C7([H])C([H])([H])OC([H])(C([H])([H])C57C([H])([H])[H])C2([H])C([H])([H])[H])C3([H])C6([H])C14C([H])([H])[H]

$$$$
62:1:1
     RDKit          3D

 78 86  0  0  1  0  0  0  0  0999 V2000
    0.2126   -6.8497    8.0192 C   0  0  0  0  0  0  0  0  0  0  0  0
    1.2909   -7.0220    6.9367 C   0  0  2  0  0  0  0  0  0  0  0  0
    1.9987   -5.5548    6.6381 C   0  0  2  0  0  0  0  0  0  0  0  0
    1.7693   -4.7120    5.2731 C   0  0  0  0  0  0  0  0  0  0  0  0
    2.9831   -4.2328    4.3403 C   0  0  1  0  0  0  0  0  0  0  0  0
    3.0887   -2.6866    4.5247 C   0  0  0  0  0  0  0  0  0  0  0  0
    4.2689   -4.8503    4.8913 C   0  0  1  0  0  0  0  0  0  0  0  0
    4.2991   -4.7620    6.4369 C   0  0  0  0  0  0  0  0  0  0  0  0
    3.3758   -5.7002    6.9830 O   0  0  0  0  0  0  0  0  0  0  0  0
    4.4082   -6.3127    4.4663 C   0  0  2  0  0  0  0  0  0  0  0  0
    5.4974   -6.8077    3.4980 C   0  0  0  0  0  0  0  0  0  0  0  0
    4.6726   -7.5204    2.4287 C   0  0  2  0  0  0  0  0  0  0  0  0
    4.4986   -6.3374    1.3978 C   0  0  0  0  0  0  0  0  0  0  0  0
    4.1264   -4.8307    1.8196 C   0  0  1  0  0  0  0  0  0  0  0  0
    4.1566   -3.9740    0.5880 N   0  0  0  0  0  0  0  0  0  0  0  0
    5.2365   -3.0470    0.4120 C   0  0  0  0  0  0  0  0  0  0  0  0
    5.3733   -2.2296   -0.5874 N   0  0  0  0  0  0  0  0  0  0  0  0
    4.3728   -2.3044   -1.5265 C   0  0  0  0  0  0  0  0  0  0  0  0
    4.2492   -1.5721   -2.6639 C   0  0  0  0  0  0  0  0  0  0  0  0
    3.0379   -2.0761   -3.2373 C   0  0  0  0  0  0  0  0  0  0  0  0
    2.4762   -3.0430   -2.5197 N   0  0  0  0  0  0  0  0  0  0  0  0
    3.2926   -3.1625   -1.4637 N   0  0  0  0  0  0  0  0  0  0  0  0
    3.1711   -4.0275   -0.3423 C   0  0  0  0  0  0  0  0  0  0  0  0
    2.1719   -4.7548   -0.3064 O   0  0  0  0  0  0  0  0  0  0  0  0
    2.8591   -4.4784    2.7467 C   0  0  1  0  0  0  0  0  0  0  0  0
    1.6493   -5.0761    2.3239 O   0  0  0  0  0  0  0  0  0  0  0  0
    1.6305   -6.4556    1.9838 C   0  0  0  0  0  0  0  0  0  0  0  0
    1.7196   -7.1923    3.2889 C   0  0  1  0  0  0  0  0  0  0  0  0
    0.1227   -7.0922    3.5837 C   0  0  0  0  0  0  0  0  0  0  0  0
   -0.4318   -7.6101    4.9237 C   0  0  0  0  0  0  0  0  0  0  0  0
    0.7523   -7.9877    5.7629 C   0  0  2  0  0  0  0  0  0  0  0  0
    1.5491   -9.1501    4.9349 C   0  0  1  0  0  0  0  0  0  0  0  0
    0.7761  -10.4951    4.9570 C   0  0  0  0  0  0  0  0  0  0  0  0
    1.6655  -11.5889    4.8856 O   0  0  0  0  0  0  0  0  0  0  0  0
    2.0744   -8.6640    3.4358 C   0  0  1  0  0  0  0  0  0  0  0  0
    1.6537   -9.6091    2.3028 C   0  0  0  0  0  0  0  0  0  0  0  0
    3.5811   -8.2105    3.3705 C   0  0  2  0  0  0  0  0  0  0  0  0
    3.1250   -7.1273    4.2387 C   0  0  1  0  0  0  0  0  0  0  0  0
   -0.5994   -6.2083    7.6765 H   0  0  0  0  0  0  0  0  0  0  0  0
    0.6305   -6.3936    8.9186 H   0  0  0  0  0  0  0  0  0  0  0  0
   -0.2059   -7.8134    8.3090 H   0  0  0  0  0  0  0  0  0  0  0  0
    2.0624   -7.6060    7.4363 H   0  0  0  0  0  0  0  0  0  0  0  0
    1.6355   -4.8839    7.4206 H   0  0  0  0  0  0  0  0  0  0  0  0
    0.9924   -5.1251    4.6708 H   0  0  0  0  0  0  0  0  0  0  0  0
    1.2279   -3.8238    5.5807 H   0  0  0  0  0  0  0  0  0  0  0  0
    3.9889   -2.2765    4.0639 H   0  0  0  0  0  0  0  0  0  0  0  0
    3.1063   -2.3845    5.5710 H   0  0  0  0  0  0  0  0  0  0  0  0
    2.2334   -2.1570    4.0953 H   0  0  0  0  0  0  0  0  0  0  0  0
    5.1325   -4.2931    4.5352 H   0  0  0  0  0  0  0  0  0  0  0  0
    5.2983   -5.0269    6.7836 H   0  0  0  0  0  0  0  0  0  0  0  0
    4.1314   -3.7577    6.8157 H   0  0  0  0  0  0  0  0  0  0  0  0
    4.8505   -6.7441    5.3674 H   0  0  0  0  0  0  0  0  0  0  0  0
    6.2169   -6.0598    3.1588 H   0  0  0  0  0  0  0  0  0  0  0  0
    6.1014   -7.5637    4.0064 H   0  0  0  0  0  0  0  0  0  0  0  0
    5.2728   -8.2992    1.9479 H   0  0  0  0  0  0  0  0  0  0  0  0
    5.5099   -6.2262    1.0063 H   0  0  0  0  0  0  0  0  0  0  0  0
    4.0204   -6.6658    0.4841 H   0  0  0  0  0  0  0  0  0  0  0  0
    4.9737   -4.4514    2.3920 H   0  0  0  0  0  0  0  0  0  0  0  0
    5.9560   -3.0807    1.2241 H   0  0  0  0  0  0  0  0  0  0  0  0
    4.9162   -0.7923   -3.0237 H   0  0  0  0  0  0  0  0  0  0  0  0
    2.5201   -1.7972   -4.1531 H   0  0  0  0  0  0  0  0  0  0  0  0
    2.6271   -3.4703    2.3967 H   0  0  0  0  0  0  0  0  0  0  0  0
    0.6792   -6.6000    1.4596 H   0  0  0  0  0  0  0  0  0  0  0  0
    2.2331   -6.8690    1.2104 H   0  0  0  0  0  0  0  0  0  0  0  0
   -0.2739   -6.0868    3.4370 H   0  0  0  0  0  0  0  0  0  0  0  0
   -0.4305   -7.6645    2.8391 H   0  0  0  0  0  0  0  0  0  0  0  0
   -1.0235   -6.8235    5.3873 H   0  0  0  0  0  0  0  0  0  0  0  0
   -1.0817   -8.4777    4.7682 H   0  0  0  0  0  0  0  0  0  0  0  0
    1.1518   -7.1011    5.4350 H   0  0  0  0  0  0  0  0  0  0  0  0
    2.4076   -9.3923    5.5642 H   0  0  0  0  0  0  0  0  0  0  0  0
    0.2557  -10.6017    5.9063 H   0  0  0  0  0  0  0  0  0  0  0  0
    0.0002  -10.5684    4.1893 H   0  0  0  0  0  0  0  0  0  0  0  0
    1.7907  -11.9180    5.7653 H   0  0  0  0  0  0  0  0  0  0  0  0
    2.0870  -10.6043    2.4216 H   0  0  0  0  0  0  0  0  0  0  0  0
    2.0018   -9.2387    1.3407 H   0  0  0  0  0  0  0  0  0  0  0  0
    0.5708   -9.7117    2.2097 H   0  0  0  0  0  0  0  0  0  0  0  0
    4.0752   -8.9655    3.9715 H   0  0  0  0  0  0  0  0  0  0  0  0
    3.0843   -7.5176    5.2366 H   0  0  0  0  0  0  0  0  0  0  0  0
  1  2  1  0
  1 39  1  0
  1 40  1  0
  1 41  1  0
  2 31  1  0
  2  3  1  0
  2 42  1  1
  3  9  1  0
  3  4  1  0
  3 43  1  1
  4  5  1  0
  4 44  1  0
  4 45  1  0
  5 25  1  0
  5  6  1  6
  5  7  1  0
  6 46  1  0
  6 47  1  0
  6 48  1  0
  7  8  1  0
  7 10  1  0
  7 49  1  6
  8  9  1  0
  8 50  1  0
  8 51  1  0
 10 38  1  0
 10 11  1  0
 10 52  1  1
 11 12  1  0
 11 53  1  0
 11 54  1  0
 12 37  1  0
 12 13  1  0
 12 55  1  6
 13 14  1  0
 13 56  1  0
 13 57  1  0
 14 15  1  0
 14 25  1  0
 14 58  1  1
 15 23  1  0
 15 16  1  0
 16 17  2  0
 16 59  1  0
 17 18  1  0
 18 22  1  0
 18 19  2  0
 19 20  1  0
 19 60  1  0
 20 21  2  0
 20 61  1  0
 21 22  1  0
 22 23  1  0
 23 24  2  0
 25 26  1  0
 25 62  1  6
 26 27  1  0
 28 27  1  6
 27 63  1  0
 27 64  1  0
 28 35  1  0
 28 38  1  0
 28 29  1  0
 29 30  1  0
 29 65  1  0
 29 66  1  0
 30 31  1  0
 30 67  1  0
 30 68  1  0
 31 32  1  0
 31 69  1  1
 32 33  1  0
 32 35  1  0
 32 70  1  1
 33 34  1  0
 33 71  1  0
 33 72  1  0
 34 73  1  0
 35 36  1  6
 35 37  1  0
 36 74  1  0
 36 75  1  0
 36 76  1  0
 37 38  1  0
 37 77  1  1
 38 78  1  1
M  END
>  <i_m_ct_stereo_status>  (183) 
1

>  <s_m_source_file>  (183) 
/var/tmp/pbs.5076255.sched01/tmp2djcgp0g/84b3bpyveh.sdf

>  <i_m_source_file_index>  (183) 
21

>  <i_lp_mmshare_version>  (183) 
48012

>  <i_f3d_flags>  (183) 
0

>  <s_epik_input>  (183) 
W0NAXTEyM0M0KFtDSDNdKVtDQEhdNVtDQEBIXTZbQ0gyXVtDQEhdKFtDQEBIXTM1KVtDQEhdN1tDQF0oW0NIM10pKFtDSDJdW0NIXShPW0NIMl03KVtDQEBIXShbQ0gzXSlbQ0BIXShbQ0gyXVtDSDJdMilbQ0BIXTRbQ0gyXVtPSF0pW0NASF0oT1tDSDJdMSlbQ0BASF0oW0NIMl02KW4oW2NIXW44KWMoPU8pbihjODkpbltjSF1bY0hdOQ==

>  <s_epik_cmdline>  (183) 
J2VwaWtfcHl0aG9uJywgJy1waHQnLCAnMi4wJywgJy1waCcsICc3LjAnLCAnLXRuJywgJzgnLCAnLW1hJywgJzIwMCcsICctaW1hZScsICc8aW5maWxlLm1hZT4nLCAnLW9tYWUnLCAnPG91dGZpbGUubWFlPic=

>  <r_lp_tautomer_probability>  (183) 
1

>  <r_epik_Ionization_Penalty>  (183) 
1.00604e-06

>  <r_epik_Ionization_Penalty_Charging>  (183) 
5.78032e-11

>  <r_epik_Ionization_Penalty_Neutral>  (183) 
1.00598e-06

>  <r_epik_State_Penalty>  (183) 
-0

>  <r_epik_Charging_Adjusted_Penalty>  (183) 
5.78032e-11

>  <i_epik_Tot_Q>  (183) 
0

>  <i_epik_Tot_abs_Q>  (183) 
0

>  <s_lp_Force_Field>  (183) 
OPLS3e

>  <r_lp_Energy>  (183) 
345.694

>  <b_lp_Chiralities_Consistent>  (183) 
1

>  <s_lp_Variant>  (183) 
62:0-2

>  <s_i_glide_gridfile>  (183) 
pfpi4k_grid

>  <i_i_glide_lignum>  (183) 
21

>  <i_i_glide_rotatable_bonds>  (183) 
3

>  <r_i_docking_score>  (183) 
-2.15555

>  <r_i_glide_ligand_efficiency>  (183) 
-0.0567251

>  <r_i_glide_ligand_efficiency_sa>  (183) 
-0.190708

>  <r_i_glide_ligand_efficiency_ln>  (183) 
-0.464801

>  <r_i_glide_gscore>  (183) 
-2.15555

>  <r_i_glide_lipo>  (183) 
-0.261569

>  <r_i_glide_hbond>  (183) 
-0.16721

>  <r_i_glide_metal>  (183) 
-0

>  <r_i_glide_rewards>  (183) 
-0.129104

>  <r_i_glide_evdw>  (183) 
-30.9756

>  <r_i_glide_ecoul>  (183) 
-1.03273

>  <r_i_glide_erotb>  (183) 
0.151629

>  <r_i_glide_esite>  (183) 
-0.0456091

>  <r_i_glide_emodel>  (183) 
-34.7093

>  <r_i_glide_energy>  (183) 
-32.0084

>  <r_i_glide_einternal>  (183) 
2.29124

>  <r_i_glide_intrahb_reward>  (183) 
-0

>  <i_i_glide_confnum>  (183) 
4

>  <i_i_glide_posenum>  (183) 
11

>  <r_i_glide_eff_state_penalty>  (183) 
0

>  <ligand_id>  (183) 
62

>  <original_smiles>  (183) 
CC1C2CC3(C)C(CO2)C2CC4CC(n5cnc6ccnn6c5=O)C3OCC35CCC1C(CO)C3(C)C4C25

>  <smiles>  (183) 
[H]OC([H])([H])C1([H])C2([H])C([H])([H])C([H])([H])C34C([H])([H])OC5([H])C([H])(n6c([H])nc7c([H])c([H])nn7c6=O)C([H])([H])C6([H])C([H])([H])C([H])(C7([H])C([H])([H])OC([H])(C([H])([H])C57C([H])([H])[H])C2([H])C([H])([H])[H])C3([H])C6([H])C14C([H])([H])[H]

$$$$
62:1:2
     RDKit          3D

 78 86  0  0  1  0  0  0  0  0999 V2000
    0.2360   -7.0319    7.9436 C   0  0  0  0  0  0  0  0  0  0  0  0
    1.3187   -7.1677    6.8571 C   0  0  2  0  0  0  0  0  0  0  0  0
    2.0243   -5.6874    6.5997 C   0  0  2  0  0  0  0  0  0  0  0  0
    1.7873   -4.8002    5.2637 C   0  0  0  0  0  0  0  0  0  0  0  0
    2.9990   -4.2923    4.3403 C   0  0  1  0  0  0  0  0  0  0  0  0
    3.0983   -2.7511    4.5788 C   0  0  0  0  0  0  0  0  0  0  0  0
    4.2871   -4.9206    4.8741 C   0  0  1  0  0  0  0  0  0  0  0  0
    4.3202   -4.8784    6.4220 C   0  0  0  0  0  0  0  0  0  0  0  0
    3.4020   -5.8345    6.9448 O   0  0  0  0  0  0  0  0  0  0  0  0
    4.4310   -6.3708    4.4067 C   0  0  2  0  0  0  0  0  0  0  0  0
    5.5244   -6.8352    3.4262 C   0  0  0  0  0  0  0  0  0  0  0  0
    4.6984   -7.5125    2.3361 C   0  0  2  0  0  0  0  0  0  0  0  0
    4.5236   -6.3014    1.3390 C   0  0  0  0  0  0  0  0  0  0  0  0
    4.1425   -4.8142    1.8070 C   0  0  1  0  0  0  0  0  0  0  0  0
    4.1613   -3.9210    0.6002 N   0  0  0  0  0  0  0  0  0  0  0  0
    5.2439   -2.9810    0.4529 C   0  0  0  0  0  0  0  0  0  0  0  0
    5.3859   -2.1265   -0.5231 N   0  0  0  0  0  0  0  0  0  0  0  0
    4.3764   -2.1957   -1.4660 C   0  0  0  0  0  0  0  0  0  0  0  0
    4.2543   -1.4220   -2.5764 C   0  0  0  0  0  0  0  0  0  0  0  0
    3.0414   -1.9241   -3.1731 C   0  0  0  0  0  0  0  0  0  0  0  0
    2.5073   -2.9330   -2.4970 N   0  0  0  0  0  0  0  0  0  0  0  0
    3.3158   -3.0709   -1.4274 N   0  0  0  0  0  0  0  0  0  0  0  0
    3.1838   -3.9571   -0.3343 C   0  0  0  0  0  0  0  0  0  0  0  0
    2.1836   -4.6783   -0.3275 O   0  0  0  0  0  0  0  0  0  0  0  0
    2.8781   -4.4923    2.7378 C   0  0  1  0  0  0  0  0  0  0  0  0
    1.6710   -5.0738    2.2823 O   0  0  0  0  0  0  0  0  0  0  0  0
    1.6573   -6.4495    1.9161 C   0  0  0  0  0  0  0  0  0  0  0  0
    1.7461   -7.2230    3.2035 C   0  0  1  0  0  0  0  0  0  0  0  0
    0.1480   -7.1405    3.5029 C   0  0  0  0  0  0  0  0  0  0  0  0
   -0.4036   -7.6987    4.8306 C   0  0  0  0  0  0  0  0  0  0  0  0
    0.7835   -8.1042    5.6569 C   0  0  2  0  0  0  0  0  0  0  0  0
    1.5817   -9.2346    4.7841 C   0  0  1  0  0  0  0  0  0  0  0  0
    0.8022  -10.5717    4.7725 C   0  0  0  0  0  0  0  0  0  0  0  0
    1.6335  -11.6472    4.3938 O   0  0  0  0  0  0  0  0  0  0  0  0
    2.1054   -8.6972    3.3039 C   0  0  1  0  0  0  0  0  0  0  0  0
    1.6899   -9.5985    2.1325 C   0  0  0  0  0  0  0  0  0  0  0  0
    3.6151   -8.2434    3.2583 C   0  0  2  0  0  0  0  0  0  0  0  0
    3.1515   -7.1841    4.1563 C   0  0  1  0  0  0  0  0  0  0  0  0
   -0.5781   -6.3809    7.6237 H   0  0  0  0  0  0  0  0  0  0  0  0
    0.6548   -6.6042    8.8560 H   0  0  0  0  0  0  0  0  0  0  0  0
   -0.1817   -8.0049    8.2035 H   0  0  0  0  0  0  0  0  0  0  0  0
    2.0929   -7.7654    7.3394 H   0  0  0  0  0  0  0  0  0  0  0  0
    1.6584   -5.0422    7.4021 H   0  0  0  0  0  0  0  0  0  0  0  0
    1.0190   -5.2092    4.6506 H   0  0  0  0  0  0  0  0  0  0  0  0
    1.2342   -3.9250    5.5975 H   0  0  0  0  0  0  0  0  0  0  0  0
    3.9971   -2.3237    4.1272 H   0  0  0  0  0  0  0  0  0  0  0  0
    3.1147   -2.4808    5.6364 H   0  0  0  0  0  0  0  0  0  0  0  0
    2.2402   -2.2138    4.1630 H   0  0  0  0  0  0  0  0  0  0  0  0
    5.1514   -4.3500    4.5348 H   0  0  0  0  0  0  0  0  0  0  0  0
    5.3196   -5.1521    6.7631 H   0  0  0  0  0  0  0  0  0  0  0  0
    4.1469   -3.8873    6.8344 H   0  0  0  0  0  0  0  0  0  0  0  0
    4.8802   -6.8291    5.2911 H   0  0  0  0  0  0  0  0  0  0  0  0
    6.2375   -6.0693    3.1083 H   0  0  0  0  0  0  0  0  0  0  0  0
    6.1384   -7.6028    3.9081 H   0  0  0  0  0  0  0  0  0  0  0  0
    5.3001   -8.2723    1.8327 H   0  0  0  0  0  0  0  0  0  0  0  0
    5.5357   -6.1740    0.9479 H   0  0  0  0  0  0  0  0  0  0  0  0
    4.0465   -6.6070    0.4133 H   0  0  0  0  0  0  0  0  0  0  0  0
    4.9871   -4.4548    2.3921 H   0  0  0  0  0  0  0  0  0  0  0  0
    5.9780   -3.0336    1.2635 H   0  0  0  0  0  0  0  0  0  0  0  0
    4.8998   -0.6200   -2.9200 H   0  0  0  0  0  0  0  0  0  0  0  0
    2.5208   -1.6083   -4.0763 H   0  0  0  0  0  0  0  0  0  0  0  0
    2.6363   -3.4774    2.4208 H   0  0  0  0  0  0  0  0  0  0  0  0
    0.7072   -6.5802    1.3883 H   0  0  0  0  0  0  0  0  0  0  0  0
    2.2630   -6.8354    1.1270 H   0  0  0  0  0  0  0  0  0  0  0  0
   -0.2563   -6.1333    3.3860 H   0  0  0  0  0  0  0  0  0  0  0  0
   -0.4042   -7.6964    2.7393 H   0  0  0  0  0  0  0  0  0  0  0  0
   -1.0111   -6.9410    5.3216 H   0  0  0  0  0  0  0  0  0  0  0  0
   -1.0548   -8.5575    4.6487 H   0  0  0  0  0  0  0  0  0  0  0  0
    1.1841   -7.2081    5.3569 H   0  0  0  0  0  0  0  0  0  0  0  0
    2.4453   -9.5091    5.3911 H   0  0  0  0  0  0  0  0  0  0  0  0
    0.4760  -10.8013    5.7859 H   0  0  0  0  0  0  0  0  0  0  0  0
   -0.0928  -10.5497    4.1462 H   0  0  0  0  0  0  0  0  0  0  0  0
    1.8245  -11.5762    3.4702 H   0  0  0  0  0  0  0  0  0  0  0  0
    2.1624  -10.5814    2.1736 H   0  0  0  0  0  0  0  0  0  0  0  0
    2.0179   -9.1782    1.1797 H   0  0  0  0  0  0  0  0  0  0  0  0
    0.6057   -9.7277    2.0789 H   0  0  0  0  0  0  0  0  0  0  0  0
    4.1251   -9.0150    3.8325 H   0  0  0  0  0  0  0  0  0  0  0  0
    3.1101   -7.5971    5.1448 H   0  0  0  0  0  0  0  0  0  0  0  0
  1  2  1  0
  1 39  1  0
  1 40  1  0
  1 41  1  0
  2 31  1  0
  2  3  1  0
  2 42  1  1
  3  9  1  0
  3  4  1  0
  3 43  1  1
  4  5  1  0
  4 44  1  0
  4 45  1  0
  5 25  1  0
  5  6  1  6
  5  7  1  0
  6 46  1  0
  6 47  1  0
  6 48  1  0
  7  8  1  0
  7 10  1  0
  7 49  1  6
  8  9  1  0
  8 50  1  0
  8 51  1  0
 10 38  1  0
 10 11  1  0
 10 52  1  1
 11 12  1  0
 11 53  1  0
 11 54  1  0
 12 37  1  0
 12 13  1  0
 12 55  1  6
 13 14  1  0
 13 56  1  0
 13 57  1  0
 14 15  1  0
 14 25  1  0
 14 58  1  1
 15 23  1  0
 15 16  1  0
 16 17  2  0
 16 59  1  0
 17 18  1  0
 18 22  1  0
 18 19  2  0
 19 20  1  0
 19 60  1  0
 20 21  2  0
 20 61  1  0
 21 22  1  0
 22 23  1  0
 23 24  2  0
 25 26  1  0
 25 62  1  6
 26 27  1  0
 28 27  1  6
 27 63  1  0
 27 64  1  0
 28 35  1  0
 28 38  1  0
 28 29  1  0
 29 30  1  0
 29 65  1  0
 29 66  1  0
 30 31  1  0
 30 67  1  0
 30 68  1  0
 31 32  1  0
 31 69  1  1
 32 33  1  0
 32 35  1  0
 32 70  1  1
 33 34  1  0
 33 71  1  0
 33 72  1  0
 34 73  1  0
 35 36  1  6
 35 37  1  0
 36 74  1  0
 36 75  1  0
 36 76  1  0
 37 38  1  0
 37 77  1  1
 38 78  1  1
M  END
>  <i_m_ct_stereo_status>  (184) 
1

>  <s_m_source_file>  (184) 
/var/tmp/pbs.5076255.sched01/tmp2djcgp0g/84b3bpyveh.sdf

>  <i_m_source_file_index>  (184) 
21

>  <i_lp_mmshare_version>  (184) 
48012

>  <i_f3d_flags>  (184) 
0

>  <s_epik_input>  (184) 
W0NAXTEyM0M0KFtDSDNdKVtDQEhdNVtDQEBIXTZbQ0gyXVtDQEhdKFtDQEBIXTM1KVtDQEhdN1tDQF0oW0NIM10pKFtDSDJdW0NIXShPW0NIMl03KVtDQEBIXShbQ0gzXSlbQ0BIXShbQ0gyXVtDSDJdMilbQ0BIXTRbQ0gyXVtPSF0pW0NASF0oT1tDSDJdMSlbQ0BASF0oW0NIMl02KW4oW2NIXW44KWMoPU8pbihjODkpbltjSF1bY0hdOQ==

>  <s_epik_cmdline>  (184) 
J2VwaWtfcHl0aG9uJywgJy1waHQnLCAnMi4wJywgJy1waCcsICc3LjAnLCAnLXRuJywgJzgnLCAnLW1hJywgJzIwMCcsICctaW1hZScsICc8aW5maWxlLm1hZT4nLCAnLW9tYWUnLCAnPG91dGZpbGUubWFlPic=

>  <r_lp_tautomer_probability>  (184) 
1

>  <r_epik_Ionization_Penalty>  (184) 
1.00604e-06

>  <r_epik_Ionization_Penalty_Charging>  (184) 
5.78032e-11

>  <r_epik_Ionization_Penalty_Neutral>  (184) 
1.00598e-06

>  <r_epik_State_Penalty>  (184) 
-0

>  <r_epik_Charging_Adjusted_Penalty>  (184) 
5.78032e-11

>  <i_epik_Tot_Q>  (184) 
0

>  <i_epik_Tot_abs_Q>  (184) 
0

>  <s_lp_Force_Field>  (184) 
OPLS3e

>  <r_lp_Energy>  (184) 
345.694

>  <b_lp_Chiralities_Consistent>  (184) 
1

>  <s_lp_Variant>  (184) 
62:0-2

>  <s_i_glide_gridfile>  (184) 
pfpi4k_grid

>  <i_i_glide_lignum>  (184) 
21

>  <i_i_glide_rotatable_bonds>  (184) 
3

>  <r_i_docking_score>  (184) 
-1.65313

>  <r_i_glide_ligand_efficiency>  (184) 
-0.0435034

>  <r_i_glide_ligand_efficiency_sa>  (184) 
-0.146257

>  <r_i_glide_ligand_efficiency_ln>  (184) 
-0.356463

>  <r_i_glide_gscore>  (184) 
-1.65313

>  <r_i_glide_lipo>  (184) 
-0.2233

>  <r_i_glide_hbond>  (184) 
-0.00870321

>  <r_i_glide_metal>  (184) 
-0

>  <r_i_glide_rewards>  (184) 
-0.0878124

>  <r_i_glide_evdw>  (184) 
-31.944

>  <r_i_glide_ecoul>  (184) 
1.04164

>  <r_i_glide_erotb>  (184) 
0.151629

>  <r_i_glide_esite>  (184) 
-0.0439888

>  <r_i_glide_emodel>  (184) 
-33.3973

>  <r_i_glide_energy>  (184) 
-30.9024

>  <r_i_glide_einternal>  (184) 
0.859028

>  <r_i_glide_intrahb_reward>  (184) 
-0

>  <i_i_glide_confnum>  (184) 
4

>  <i_i_glide_posenum>  (184) 
21

>  <r_i_glide_eff_state_penalty>  (184) 
0

>  <ligand_id>  (184) 
62

>  <original_smiles>  (184) 
CC1C2CC3(C)C(CO2)C2CC4CC(n5cnc6ccnn6c5=O)C3OCC35CCC1C(CO)C3(C)C4C25

>  <smiles>  (184) 
[H]OC([H])([H])C1([H])C2([H])C([H])([H])C([H])([H])C34C([H])([H])OC5([H])C([H])(n6c([H])nc7c([H])c([H])nn7c6=O)C([H])([H])C6([H])C([H])([H])C([H])(C7([H])C([H])([H])OC([H])(C([H])([H])C57C([H])([H])[H])C2([H])C([H])([H])[H])C3([H])C6([H])C14C([H])([H])[H]

$$$$
64:0:0
     RDKit          3D

 47 52  0  0  1  0  0  0  0  0999 V2000
    4.6889   -6.4366    0.1017 C   0  0  0  0  0  0  0  0  0  0  0  0
    5.1122   -5.1733    0.2525 C   0  0  0  0  0  0  0  0  0  0  0  0
    6.5343   -4.9244    0.7801 C   0  0  0  0  0  0  0  0  0  0  0  0
    7.2512   -5.8598    1.1333 O   0  0  0  0  0  0  0  0  0  0  0  0
    7.1778   -3.4808    0.9559 C   0  0  1  0  0  0  0  0  0  0  0  0
    7.9707   -3.0626   -0.2622 C   0  0  1  0  0  0  0  0  0  0  0  0
    9.0086   -3.9530   -0.6184 O   0  0  0  0  0  0  0  0  0  0  0  0
    6.9854   -2.9679   -1.1992 O   0  0  0  0  0  0  0  0  0  0  0  0
    5.8393   -2.4334   -0.5225 C   0  0  2  0  0  0  0  0  0  0  0  0
    6.0768   -2.3894    1.0628 C   0  0  1  0  0  0  0  0  0  0  0  0
    5.3807   -2.8193    2.4615 C   0  0  0  0  0  0  0  0  0  0  0  0
    4.3268   -1.9863    3.2473 C   0  0  0  0  0  0  0  0  0  0  0  0
    2.9189   -2.0023    2.6693 C   0  0  0  0  0  0  0  0  0  0  0  0
    1.9369   -1.7720    3.3752 O   0  0  0  0  0  0  0  0  0  0  0  0
    2.7601   -2.2975    1.1884 C   0  0  2  0  0  0  0  0  0  0  0  0
    3.2146   -3.7615    0.8972 C   0  0  0  0  0  0  0  0  0  0  0  0
    4.1761   -4.0704   -0.0076 C   0  0  0  0  0  0  0  0  0  0  0  0
    4.5458   -3.0146   -1.0200 C   0  0  2  0  0  0  0  0  0  0  0  0
    4.6182   -3.3806   -2.5283 C   0  0  0  0  0  0  0  0  0  0  0  0
    4.3772   -2.0361   -3.1870 C   0  0  0  0  0  0  0  0  0  0  0  0
    3.8067   -1.1661   -2.3512 C   0  0  0  0  0  0  0  0  0  0  0  0
    3.5348   -1.8692   -1.0513 C   0  0  2  0  0  0  0  0  0  0  0  0
    3.4162   -1.1662    0.3102 C   0  0  2  0  0  0  0  0  0  0  0  0
    4.6482   -0.2783    0.8490 C   0  0  0  0  0  0  0  0  0  0  0  0
    6.0902   -0.8609    1.2142 C   0  0  0  0  0  0  0  0  0  0  0  0
    3.7018   -6.6520   -0.2777 H   0  0  0  0  0  0  0  0  0  0  0  0
    5.3263   -7.2796    0.3119 H   0  0  0  0  0  0  0  0  0  0  0  0
    7.8369   -3.4946    1.8177 H   0  0  0  0  0  0  0  0  0  0  0  0
    8.4390   -2.0885   -0.0968 H   0  0  0  0  0  0  0  0  0  0  0  0
    9.4664   -3.5708   -1.3614 H   0  0  0  0  0  0  0  0  0  0  0  0
    5.9258   -1.4481   -0.9780 H   0  0  0  0  0  0  0  0  0  0  0  0
    5.0896   -3.8607    2.5717 H   0  0  0  0  0  0  0  0  0  0  0  0
    6.2096   -2.7709    3.1641 H   0  0  0  0  0  0  0  0  0  0  0  0
    4.2439   -2.4152    4.2481 H   0  0  0  0  0  0  0  0  0  0  0  0
    4.6397   -0.9567    3.4142 H   0  0  0  0  0  0  0  0  0  0  0  0
    1.6901   -2.2840    0.9866 H   0  0  0  0  0  0  0  0  0  0  0  0
    3.0016   -4.4646    1.6975 H   0  0  0  0  0  0  0  0  0  0  0  0
    5.5476   -3.8519   -2.8457 H   0  0  0  0  0  0  0  0  0  0  0  0
    3.7920   -4.0296   -2.8057 H   0  0  0  0  0  0  0  0  0  0  0  0
    4.5954   -1.8506   -4.2266 H   0  0  0  0  0  0  0  0  0  0  0  0
    3.4735   -0.1735   -2.6023 H   0  0  0  0  0  0  0  0  0  0  0  0
    2.5585   -2.3096   -1.2525 H   0  0  0  0  0  0  0  0  0  0  0  0
    2.6194   -0.4269    0.1964 H   0  0  0  0  0  0  0  0  0  0  0  0
    4.7910    0.4818    0.0876 H   0  0  0  0  0  0  0  0  0  0  0  0
    4.2926    0.3147    1.6914 H   0  0  0  0  0  0  0  0  0  0  0  0
    6.3871   -0.5578    2.2171 H   0  0  0  0  0  0  0  0  0  0  0  0
    6.8466   -0.4093    0.5727 H   0  0  0  0  0  0  0  0  0  0  0  0
  1  2  2  0
  1 26  1  0
  1 27  1  0
  2 17  1  0
  2  3  1  0
  3  4  2  0
  3  5  1  0
  5 10  1  0
  5  6  1  0
  5 28  1  1
  6  7  1  0
  6  8  1  0
  6 29  1  1
  7 30  1  0
  8  9  1  0
  9 18  1  0
  9 10  1  0
  9 31  1  6
 10 25  1  0
 10 11  1  1
 11 12  1  0
 11 32  1  0
 11 33  1  0
 12 13  1  0
 12 34  1  0
 12 35  1  0
 13 14  2  0
 13 15  1  0
 15 23  1  0
 15 16  1  0
 15 36  1  6
 16 17  2  0
 16 37  1  0
 17 18  1  0
 18 22  1  0
 18 19  1  6
 19 20  1  0
 19 38  1  0
 19 39  1  0
 20 21  2  0
 20 40  1  0
 21 22  1  0
 21 41  1  0
 22 23  1  0
 22 42  1  6
 23 24  1  0
 23 43  1  6
 24 25  1  0
 24 44  1  0
 24 45  1  0
 25 46  1  0
 25 47  1  0
M  END
>  <i_m_ct_stereo_status>  (185) 
1

>  <s_m_source_file>  (185) 
/var/tmp/pbs.5076255.sched01/tmp2djcgp0g/84b3bpyveh.sdf

>  <i_m_source_file_index>  (185) 
23

>  <i_lp_mmshare_version>  (185) 
48012

>  <i_f3d_flags>  (185) 
1

>  <s_epik_input>  (185) 
W0NAXTEyM1tDQEhdNEMoPU8pQyg9W0NIMl0pQzVbQ0BdNihbQ0BASF0xT1tDQEBIXTRbT0hdKVtDQEhdKFtDSF09W0NIXVtDSDJdNilbQ0BIXShbQ0gyXVtDSDJdMylbQ0BASF0oW0NIXT01KUMoPU8pW0NIMl1bQ0gyXTI=

>  <s_epik_cmdline>  (185) 
J2VwaWtfcHl0aG9uJywgJy1waHQnLCAnMi4wJywgJy1waCcsICc3LjAnLCAnLXRuJywgJzgnLCAnLW1hJywgJzIwMCcsICctaW1hZScsICc8aW5maWxlLm1hZT4nLCAnLW9tYWUnLCAnPG91dGZpbGUubWFlPic=

>  <r_lp_tautomer_probability>  (185) 
1

>  <r_epik_Ionization_Penalty>  (185) 
1.87416e-06

>  <r_epik_Ionization_Penalty_Charging>  (185) 
0

>  <r_epik_Ionization_Penalty_Neutral>  (185) 
1.87416e-06

>  <r_epik_State_Penalty>  (185) 
-0

>  <r_epik_Charging_Adjusted_Penalty>  (185) 
0

>  <i_epik_Tot_Q>  (185) 
0

>  <i_epik_Tot_abs_Q>  (185) 
0

>  <s_epik_Chemistry_Notes>  (185) 
This compound contains an acetal/aminal-like group ( X-CH(R)-Y where X, Y are N, S, or O) that may be acid/base labile, releasing an aldehyde.

>  <s_lp_Force_Field>  (185) 
OPLS3e

>  <r_lp_Energy>  (185) 
154.091

>  <b_lp_Chiralities_Consistent>  (185) 
1

>  <s_lp_Variant>  (185) 
64:0-1

>  <s_i_glide_gridfile>  (185) 
pfpi4k_grid

>  <i_i_glide_lignum>  (185) 
23

>  <i_i_glide_rotatable_bonds>  (185) 
1

>  <r_i_docking_score>  (185) 
-3.94825

>  <r_i_glide_ligand_efficiency>  (185) 
-0.15793

>  <r_i_glide_ligand_efficiency_sa>  (185) 
-0.46179

>  <r_i_glide_ligand_efficiency_ln>  (185) 
-0.935854

>  <r_i_glide_gscore>  (185) 
-3.94825

>  <r_i_glide_lipo>  (185) 
-0.780437

>  <r_i_glide_hbond>  (185) 
0

>  <r_i_glide_metal>  (185) 
-0

>  <r_i_glide_rewards>  (185) 
-1.44991

>  <r_i_glide_evdw>  (185) 
-26.1316

>  <r_i_glide_ecoul>  (185) 
-2.7223

>  <r_i_glide_erotb>  (185) 
0

>  <r_i_glide_esite>  (185) 
-0.00297562

>  <r_i_glide_emodel>  (185) 
-35.5472

>  <r_i_glide_energy>  (185) 
-28.8539

>  <r_i_glide_einternal>  (185) 
0.244213

>  <r_i_glide_intrahb_reward>  (185) 
-0

>  <i_i_glide_confnum>  (185) 
1

>  <i_i_glide_posenum>  (185) 
36

>  <r_i_glide_eff_state_penalty>  (185) 
0

>  <ligand_id>  (185) 
64

>  <original_smiles>  (185) 
C=C1C(=O)C2C(O)OC3C24CCC(=O)C2C=C1C31CC=CC1C2CC4

>  <smiles>  (185) 
[H]OC1([H])OC2([H])C34C5=C([H])C6([H])C(=O)C([H])([H])C([H])([H])C2(C([H])([H])C([H])([H])C6([H])C3([H])C([H])=C([H])C4([H])[H])C1([H])C(=O)C5=C([H])[H]

$$$$
64:0:1
     RDKit          3D

 47 52  0  0  1  0  0  0  0  0999 V2000
    7.9275   -3.2934   -1.0993 C   0  0  0  0  0  0  0  0  0  0  0  0
    6.8970   -3.1719   -0.2777 C   0  0  0  0  0  0  0  0  0  0  0  0
    6.9457   -2.0763    0.7677 C   0  0  0  0  0  0  0  0  0  0  0  0
    7.9551   -1.3600    0.8082 O   0  0  0  0  0  0  0  0  0  0  0  0
    5.7975   -1.7147    1.8105 C   0  0  1  0  0  0  0  0  0  0  0  0
    4.9150   -0.6488    1.2302 C   0  0  1  0  0  0  0  0  0  0  0  0
    5.6839    0.4385    0.8836 O   0  0  0  0  0  0  0  0  0  0  0  0
    4.3852   -1.2519    0.1519 O   0  0  0  0  0  0  0  0  0  0  0  0
    4.1150   -2.5576    0.5918 C   0  0  2  0  0  0  0  0  0  0  0  0
    4.7874   -2.8673    1.9975 C   0  0  1  0  0  0  0  0  0  0  0  0
    5.7666   -3.9162    2.7138 C   0  0  0  0  0  0  0  0  0  0  0  0
    5.3455   -5.2410    3.3939 C   0  0  0  0  0  0  0  0  0  0  0  0
    5.0232   -6.3778    2.4395 C   0  0  0  0  0  0  0  0  0  0  0  0
    5.0673   -7.5481    2.8080 O   0  0  0  0  0  0  0  0  0  0  0  0
    4.6007   -6.0060    1.0315 C   0  0  2  0  0  0  0  0  0  0  0  0
    5.8099   -5.3304    0.2928 C   0  0  0  0  0  0  0  0  0  0  0  0
    5.7317   -4.0963   -0.2698 C   0  0  0  0  0  0  0  0  0  0  0  0
    4.3632   -3.5143   -0.5070 C   0  0  2  0  0  0  0  0  0  0  0  0
    4.0151   -2.9558   -1.9199 C   0  0  0  0  0  0  0  0  0  0  0  0
    2.5059   -3.0920   -1.9615 C   0  0  0  0  0  0  0  0  0  0  0  0
    2.0715   -3.9611   -1.0581 C   0  0  0  0  0  0  0  0  0  0  0  0
    3.2622   -4.5419   -0.3201 C   0  0  2  0  0  0  0  0  0  0  0  0
    3.2247   -5.2075    1.0468 C   0  0  2  0  0  0  0  0  0  0  0  0
    2.7316   -4.3192    2.2956 C   0  0  0  0  0  0  0  0  0  0  0  0
    3.5086   -3.0298    2.8214 C   0  0  0  0  0  0  0  0  0  0  0  0
    7.9946   -4.0181   -1.8845 H   0  0  0  0  0  0  0  0  0  0  0  0
    8.7985   -2.6448   -1.0698 H   0  0  0  0  0  0  0  0  0  0  0  0
    6.2195   -1.3438    2.7442 H   0  0  0  0  0  0  0  0  0  0  0  0
    4.1441   -0.2902    1.9139 H   0  0  0  0  0  0  0  0  0  0  0  0
    5.2102    0.9746    0.2591 H   0  0  0  0  0  0  0  0  0  0  0  0
    3.0473   -2.3911    0.6731 H   0  0  0  0  0  0  0  0  0  0  0  0
    6.7201   -4.1097    2.2316 H   0  0  0  0  0  0  0  0  0  0  0  0
    6.0661   -3.3505    3.5918 H   0  0  0  0  0  0  0  0  0  0  0  0
    6.1840   -5.5837    4.0006 H   0  0  0  0  0  0  0  0  0  0  0  0
    4.5261   -5.1018    4.0978 H   0  0  0  0  0  0  0  0  0  0  0  0
    4.4512   -6.9473    0.5040 H   0  0  0  0  0  0  0  0  0  0  0  0
    6.7751   -5.7245    0.5585 H   0  0  0  0  0  0  0  0  0  0  0  0
    4.3350   -1.9354   -2.1113 H   0  0  0  0  0  0  0  0  0  0  0  0
    4.4085   -3.5937   -2.7116 H   0  0  0  0  0  0  0  0  0  0  0  0
    1.8784   -2.5792   -2.6741 H   0  0  0  0  0  0  0  0  0  0  0  0
    1.0603   -4.3155   -0.9572 H   0  0  0  0  0  0  0  0  0  0  0  0
    3.6457   -5.3359   -0.9389 H   0  0  0  0  0  0  0  0  0  0  0  0
    2.4704   -5.9937    0.9722 H   0  0  0  0  0  0  0  0  0  0  0  0
    1.7297   -3.9837    2.0432 H   0  0  0  0  0  0  0  0  0  0  0  0
    2.5754   -4.9869    3.1376 H   0  0  0  0  0  0  0  0  0  0  0  0
    3.7143   -3.0977    3.8896 H   0  0  0  0  0  0  0  0  0  0  0  0
    2.8713   -2.1465    2.7381 H   0  0  0  0  0  0  0  0  0  0  0  0
  1  2  2  0
  1 26  1  0
  1 27  1  0
  2 17  1  0
  2  3  1  0
  3  4  2  0
  3  5  1  0
  5 10  1  0
  5  6  1  0
  5 28  1  1
  6  7  1  0
  6  8  1  0
  6 29  1  1
  7 30  1  0
  8  9  1  0
  9 18  1  0
  9 10  1  0
  9 31  1  1
 10 25  1  0
 10 11  1  6
 11 12  1  0
 11 32  1  0
 11 33  1  0
 12 13  1  0
 12 34  1  0
 12 35  1  0
 13 14  2  0
 13 15  1  0
 15 23  1  0
 15 16  1  0
 15 36  1  6
 16 17  2  0
 16 37  1  0
 17 18  1  0
 18 22  1  0
 18 19  1  6
 19 20  1  0
 19 38  1  0
 19 39  1  0
 20 21  2  0
 20 40  1  0
 21 22  1  0
 21 41  1  0
 22 23  1  0
 22 42  1  6
 23 24  1  0
 23 43  1  6
 24 25  1  0
 24 44  1  0
 24 45  1  0
 25 46  1  0
 25 47  1  0
M  END
>  <i_m_ct_stereo_status>  (186) 
1

>  <s_m_source_file>  (186) 
/var/tmp/pbs.5076255.sched01/tmp2djcgp0g/84b3bpyveh.sdf

>  <i_m_source_file_index>  (186) 
23

>  <i_lp_mmshare_version>  (186) 
48012

>  <i_f3d_flags>  (186) 
1

>  <s_epik_input>  (186) 
W0NAXTEyM1tDQEhdNEMoPU8pQyg9W0NIMl0pQzVbQ0BdNihbQ0BASF0xT1tDQEBIXTRbT0hdKVtDQEhdKFtDSF09W0NIXVtDSDJdNilbQ0BIXShbQ0gyXVtDSDJdMylbQ0BASF0oW0NIXT01KUMoPU8pW0NIMl1bQ0gyXTI=

>  <s_epik_cmdline>  (186) 
J2VwaWtfcHl0aG9uJywgJy1waHQnLCAnMi4wJywgJy1waCcsICc3LjAnLCAnLXRuJywgJzgnLCAnLW1hJywgJzIwMCcsICctaW1hZScsICc8aW5maWxlLm1hZT4nLCAnLW9tYWUnLCAnPG91dGZpbGUubWFlPic=

>  <r_lp_tautomer_probability>  (186) 
1

>  <r_epik_Ionization_Penalty>  (186) 
1.87416e-06

>  <r_epik_Ionization_Penalty_Charging>  (186) 
0

>  <r_epik_Ionization_Penalty_Neutral>  (186) 
1.87416e-06

>  <r_epik_State_Penalty>  (186) 
-0

>  <r_epik_Charging_Adjusted_Penalty>  (186) 
0

>  <i_epik_Tot_Q>  (186) 
0

>  <i_epik_Tot_abs_Q>  (186) 
0

>  <s_epik_Chemistry_Notes>  (186) 
This compound contains an acetal/aminal-like group ( X-CH(R)-Y where X, Y are N, S, or O) that may be acid/base labile, releasing an aldehyde.

>  <s_lp_Force_Field>  (186) 
OPLS3e

>  <r_lp_Energy>  (186) 
154.091

>  <b_lp_Chiralities_Consistent>  (186) 
1

>  <s_lp_Variant>  (186) 
64:0-1

>  <s_i_glide_gridfile>  (186) 
pfpi4k_grid

>  <i_i_glide_lignum>  (186) 
23

>  <i_i_glide_rotatable_bonds>  (186) 
1

>  <r_i_docking_score>  (186) 
-2.46783

>  <r_i_glide_ligand_efficiency>  (186) 
-0.098713

>  <r_i_glide_ligand_efficiency_sa>  (186) 
-0.288639

>  <r_i_glide_ligand_efficiency_ln>  (186) 
-0.584949

>  <r_i_glide_gscore>  (186) 
-2.46783

>  <r_i_glide_lipo>  (186) 
-0.621714

>  <r_i_glide_hbond>  (186) 
0

>  <r_i_glide_metal>  (186) 
-0

>  <r_i_glide_rewards>  (186) 
-1.34375

>  <r_i_glide_evdw>  (186) 
2.57383

>  <r_i_glide_ecoul>  (186) 
-4.20699

>  <r_i_glide_erotb>  (186) 
0

>  <r_i_glide_esite>  (186) 
0

>  <r_i_glide_emodel>  (186) 
-4.50674

>  <r_i_glide_energy>  (186) 
-1.63316

>  <r_i_glide_einternal>  (186) 
0.860181

>  <r_i_glide_intrahb_reward>  (186) 
-0

>  <i_i_glide_confnum>  (186) 
1

>  <i_i_glide_posenum>  (186) 
6

>  <r_i_glide_eff_state_penalty>  (186) 
0

>  <ligand_id>  (186) 
64

>  <original_smiles>  (186) 
C=C1C(=O)C2C(O)OC3C24CCC(=O)C2C=C1C31CC=CC1C2CC4

>  <smiles>  (186) 
[H]OC1([H])OC2([H])C34C5=C([H])C6([H])C(=O)C([H])([H])C([H])([H])C2(C([H])([H])C([H])([H])C6([H])C3([H])C([H])=C([H])C4([H])[H])C1([H])C(=O)C5=C([H])[H]

$$$$
64:0:2
     RDKit          3D

 47 52  0  0  1  0  0  0  0  0999 V2000
    6.8846   -1.7818    0.8435 C   0  0  0  0  0  0  0  0  0  0  0  0
    5.7238   -2.1416    1.4219 C   0  0  0  0  0  0  0  0  0  0  0  0
    5.1390   -1.2492    2.5319 C   0  0  0  0  0  0  0  0  0  0  0  0
    5.7681   -0.2761    2.9502 O   0  0  0  0  0  0  0  0  0  0  0  0
    3.7302   -1.5098    3.2412 C   0  0  1  0  0  0  0  0  0  0  0  0
    2.6439   -0.7461    2.5173 C   0  0  1  0  0  0  0  0  0  0  0  0
    2.8913    0.6376    2.4478 O   0  0  0  0  0  0  0  0  0  0  0  0
    2.6619   -1.3620    1.3011 O   0  0  0  0  0  0  0  0  0  0  0  0
    2.8663   -2.7539    1.5463 C   0  0  2  0  0  0  0  0  0  0  0  0
    3.2830   -2.9902    3.0818 C   0  0  1  0  0  0  0  0  0  0  0  0
    4.4256   -3.6973    3.9793 C   0  0  0  0  0  0  0  0  0  0  0  0
    4.4345   -5.1896    4.4060 C   0  0  0  0  0  0  0  0  0  0  0  0
    4.8081   -6.1925    3.3189 C   0  0  0  0  0  0  0  0  0  0  0  0
    5.2453   -7.3026    3.6127 O   0  0  0  0  0  0  0  0  0  0  0  0
    4.5997   -5.7935    1.8675 C   0  0  2  0  0  0  0  0  0  0  0  0
    5.5439   -4.5968    1.5287 C   0  0  0  0  0  0  0  0  0  0  0  0
    5.0921   -3.4155    1.0357 C   0  0  0  0  0  0  0  0  0  0  0  0
    3.7002   -3.3997    0.4678 C   0  0  2  0  0  0  0  0  0  0  0  0
    3.4622   -2.7655   -0.9321 C   0  0  0  0  0  0  0  0  0  0  0  0
    2.1849   -3.4587   -1.3684 C   0  0  0  0  0  0  0  0  0  0  0  0
    1.9678   -4.5800   -0.6792 C   0  0  0  0  0  0  0  0  0  0  0  0
    3.1345   -4.8046    0.2402 C   0  0  2  0  0  0  0  0  0  0  0  0
    3.0605   -5.6037    1.5517 C   0  0  2  0  0  0  0  0  0  0  0  0
    1.9893   -5.1676    2.6845 C   0  0  0  0  0  0  0  0  0  0  0  0
    2.0330   -3.7848    3.4993 C   0  0  0  0  0  0  0  0  0  0  0  0
    7.3477   -2.3976    0.0907 H   0  0  0  0  0  0  0  0  0  0  0  0
    7.4001   -0.8792    1.1216 H   0  0  0  0  0  0  0  0  0  0  0  0
    3.7675   -1.1915    4.2829 H   0  0  0  0  0  0  0  0  0  0  0  0
    1.6760   -0.8785    3.0029 H   0  0  0  0  0  0  0  0  0  0  0  0
    2.1698    1.0387    1.9826 H   0  0  0  0  0  0  0  0  0  0  0  0
    1.8354   -3.0377    1.3542 H   0  0  0  0  0  0  0  0  0  0  0  0
    5.4541   -3.4370    3.7524 H   0  0  0  0  0  0  0  0  0  0  0  0
    4.3131   -3.2174    4.9531 H   0  0  0  0  0  0  0  0  0  0  0  0
    5.1821   -5.3055    5.1914 H   0  0  0  0  0  0  0  0  0  0  0  0
    3.5000   -5.4976    4.8712 H   0  0  0  0  0  0  0  0  0  0  0  0
    4.9701   -6.6239    1.2657 H   0  0  0  0  0  0  0  0  0  0  0  0
    6.5074   -4.6206    2.0234 H   0  0  0  0  0  0  0  0  0  0  0  0
    3.3645   -1.6815   -0.9349 H   0  0  0  0  0  0  0  0  0  0  0  0
    4.2496   -3.0379   -1.6339 H   0  0  0  0  0  0  0  0  0  0  0  0
    1.5580   -3.0731   -2.1578 H   0  0  0  0  0  0  0  0  0  0  0  0
    1.1690   -5.2796   -0.8400 H   0  0  0  0  0  0  0  0  0  0  0  0
    3.8171   -5.3574   -0.4100 H   0  0  0  0  0  0  0  0  0  0  0  0
    2.7196   -6.5991    1.2600 H   0  0  0  0  0  0  0  0  0  0  0  0
    1.0095   -5.2192    2.2105 H   0  0  0  0  0  0  0  0  0  0  0  0
    1.9439   -5.9741    3.4166 H   0  0  0  0  0  0  0  0  0  0  0  0
    2.0001   -3.9603    4.5755 H   0  0  0  0  0  0  0  0  0  0  0  0
    1.1156   -3.2190    3.3154 H   0  0  0  0  0  0  0  0  0  0  0  0
  1  2  2  0
  1 26  1  0
  1 27  1  0
  2 17  1  0
  2  3  1  0
  3  4  2  0
  3  5  1  0
  5 10  1  0
  5  6  1  0
  5 28  1  1
  6  7  1  0
  6  8  1  0
  6 29  1  1
  7 30  1  0
  8  9  1  0
  9 18  1  0
  9 10  1  0
  9 31  1  1
 10 25  1  0
 10 11  1  6
 11 12  1  0
 11 32  1  0
 11 33  1  0
 12 13  1  0
 12 34  1  0
 12 35  1  0
 13 14  2  0
 13 15  1  0
 15 23  1  0
 15 16  1  0
 15 36  1  6
 16 17  2  0
 16 37  1  0
 17 18  1  0
 18 22  1  0
 18 19  1  6
 19 20  1  0
 19 38  1  0
 19 39  1  0
 20 21  2  0
 20 40  1  0
 21 22  1  0
 21 41  1  0
 22 23  1  0
 22 42  1  6
 23 24  1  0
 23 43  1  6
 24 25  1  0
 24 44  1  0
 24 45  1  0
 25 46  1  0
 25 47  1  0
M  END
>  <i_m_ct_stereo_status>  (187) 
1

>  <s_m_source_file>  (187) 
/var/tmp/pbs.5076255.sched01/tmp2djcgp0g/84b3bpyveh.sdf

>  <i_m_source_file_index>  (187) 
23

>  <i_lp_mmshare_version>  (187) 
48012

>  <i_f3d_flags>  (187) 
1

>  <s_epik_input>  (187) 
W0NAXTEyM1tDQEhdNEMoPU8pQyg9W0NIMl0pQzVbQ0BdNihbQ0BASF0xT1tDQEBIXTRbT0hdKVtDQEhdKFtDSF09W0NIXVtDSDJdNilbQ0BIXShbQ0gyXVtDSDJdMylbQ0BASF0oW0NIXT01KUMoPU8pW0NIMl1bQ0gyXTI=

>  <s_epik_cmdline>  (187) 
J2VwaWtfcHl0aG9uJywgJy1waHQnLCAnMi4wJywgJy1waCcsICc3LjAnLCAnLXRuJywgJzgnLCAnLW1hJywgJzIwMCcsICctaW1hZScsICc8aW5maWxlLm1hZT4nLCAnLW9tYWUnLCAnPG91dGZpbGUubWFlPic=

>  <r_lp_tautomer_probability>  (187) 
1

>  <r_epik_Ionization_Penalty>  (187) 
1.87416e-06

>  <r_epik_Ionization_Penalty_Charging>  (187) 
0

>  <r_epik_Ionization_Penalty_Neutral>  (187) 
1.87416e-06

>  <r_epik_State_Penalty>  (187) 
-0

>  <r_epik_Charging_Adjusted_Penalty>  (187) 
0

>  <i_epik_Tot_Q>  (187) 
0

>  <i_epik_Tot_abs_Q>  (187) 
0

>  <s_epik_Chemistry_Notes>  (187) 
This compound contains an acetal/aminal-like group ( X-CH(R)-Y where X, Y are N, S, or O) that may be acid/base labile, releasing an aldehyde.

>  <s_lp_Force_Field>  (187) 
OPLS3e

>  <r_lp_Energy>  (187) 
154.091

>  <b_lp_Chiralities_Consistent>  (187) 
1

>  <s_lp_Variant>  (187) 
64:0-1

>  <s_i_glide_gridfile>  (187) 
pfpi4k_grid

>  <i_i_glide_lignum>  (187) 
23

>  <i_i_glide_rotatable_bonds>  (187) 
1

>  <r_i_docking_score>  (187) 
-2.42229

>  <r_i_glide_ligand_efficiency>  (187) 
-0.0968914

>  <r_i_glide_ligand_efficiency_sa>  (187) 
-0.283312

>  <r_i_glide_ligand_efficiency_ln>  (187) 
-0.574154

>  <r_i_glide_gscore>  (187) 
-2.42229

>  <r_i_glide_lipo>  (187) 
-0.288821

>  <r_i_glide_hbond>  (187) 
-0.0726278

>  <r_i_glide_metal>  (187) 
-0

>  <r_i_glide_rewards>  (187) 
-1.24631

>  <r_i_glide_evdw>  (187) 
-17.9155

>  <r_i_glide_ecoul>  (187) 
0.625998

>  <r_i_glide_erotb>  (187) 
0

>  <r_i_glide_esite>  (187) 
-0.0126517

>  <r_i_glide_emodel>  (187) 
-21.3642

>  <r_i_glide_energy>  (187) 
-17.2895

>  <r_i_glide_einternal>  (187) 
0.256599

>  <r_i_glide_intrahb_reward>  (187) 
-0

>  <i_i_glide_confnum>  (187) 
2

>  <i_i_glide_posenum>  (187) 
21

>  <r_i_glide_eff_state_penalty>  (187) 
0

>  <ligand_id>  (187) 
64

>  <original_smiles>  (187) 
C=C1C(=O)C2C(O)OC3C24CCC(=O)C2C=C1C31CC=CC1C2CC4

>  <smiles>  (187) 
[H]OC1([H])OC2([H])C34C5=C([H])C6([H])C(=O)C([H])([H])C([H])([H])C2(C([H])([H])C([H])([H])C6([H])C3([H])C([H])=C([H])C4([H])[H])C1([H])C(=O)C5=C([H])[H]

$$$$
65:0:0
     RDKit          3D

 32 34  0  0  1  0  0  0  0  0999 V2000
    2.9336    0.0088    1.3225 C   0  0  0  0  0  0  0  0  0  0  0  0
    3.9532   -1.0937    1.1462 C   0  0  0  0  0  0  0  0  0  0  0  0
    3.9681   -2.0567    1.9851 N   0  0  0  0  0  0  0  0  0  0  0  0
    4.8461   -3.1088    1.8586 C   0  0  0  0  0  0  0  0  0  0  0  0
    5.9592   -3.1650    1.0867 C   0  0  0  0  0  0  0  0  0  0  0  0
    6.5121   -4.4606    1.2714 C   0  0  0  0  0  0  0  0  0  0  0  0
    7.7253   -5.1021    0.6742 C   0  0  0  0  0  0  0  0  0  0  0  0
    5.7458   -5.1614    2.1054 N   0  0  0  0  0  0  0  0  0  0  0  0
    4.7238   -4.3386    2.4644 N   0  0  0  0  0  0  0  0  0  0  0  0
    3.6914   -4.8031    3.3627 C   0  0  0  0  0  0  0  0  0  0  0  0
    6.4613   -1.8610    0.0335 S   0  0  0  0  0  0  0  0  0  0  0  0
    4.8683   -0.9717   -0.0921 C   0  0  1  0  0  0  0  0  0  0  0  0
    4.1996   -1.4730   -1.3700 C   0  0  0  0  0  0  0  0  0  0  0  0
    3.4066   -2.6442   -1.3744 C   0  0  0  0  0  0  0  0  0  0  0  0
    2.8091   -3.0559   -2.5781 C   0  0  0  0  0  0  0  0  0  0  0  0
    3.0524   -2.3114   -3.7411 C   0  0  0  0  0  0  0  0  0  0  0  0
    3.8391   -1.2187   -3.7683 N   0  0  0  0  0  0  0  0  0  0  0  0
    4.3779   -0.8068   -2.6018 C   0  0  0  0  0  0  0  0  0  0  0  0
    3.4052    0.9852    1.4367 H   0  0  0  0  0  0  0  0  0  0  0  0
    2.3204   -0.1873    2.2025 H   0  0  0  0  0  0  0  0  0  0  0  0
    2.2477    0.0377    0.4808 H   0  0  0  0  0  0  0  0  0  0  0  0
    8.2455   -4.4442   -0.0296 H   0  0  0  0  0  0  0  0  0  0  0  0
    7.4544   -6.0144    0.1404 H   0  0  0  0  0  0  0  0  0  0  0  0
    8.4337   -5.3906    1.4532 H   0  0  0  0  0  0  0  0  0  0  0  0
    2.7708   -4.2564    3.1683 H   0  0  0  0  0  0  0  0  0  0  0  0
    3.9953   -4.6158    4.3897 H   0  0  0  0  0  0  0  0  0  0  0  0
    3.5050   -5.8654    3.2184 H   0  0  0  0  0  0  0  0  0  0  0  0
    5.0970    0.0882   -0.2156 H   0  0  0  0  0  0  0  0  0  0  0  0
    3.2384   -3.2229   -0.4812 H   0  0  0  0  0  0  0  0  0  0  0  0
    2.1624   -3.9214   -2.6085 H   0  0  0  0  0  0  0  0  0  0  0  0
    2.6191   -2.6166   -4.6777 H   0  0  0  0  0  0  0  0  0  0  0  0
    4.9929    0.0820   -2.6670 H   0  0  0  0  0  0  0  0  0  0  0  0
  1  2  1  0
  1 19  1  0
  1 20  1  0
  1 21  1  0
  2 12  1  0
  2  3  2  0
  3  4  1  0
  4  9  1  0
  4  5  2  0
  5  6  1  0
  5 11  1  0
  6  7  1  0
  6  8  2  0
  7 22  1  0
  7 23  1  0
  7 24  1  0
  8  9  1  0
  9 10  1  0
 10 25  1  0
 10 26  1  0
 10 27  1  0
 11 12  1  0
 12 13  1  0
 12 28  1  6
 13 18  1  0
 13 14  2  0
 14 15  1  0
 14 29  1  0
 15 16  2  0
 15 30  1  0
 16 17  1  0
 16 31  1  0
 17 18  2  0
 18 32  1  0
M  END
>  <i_m_ct_stereo_status>  (188) 
1

>  <s_m_source_file>  (188) 
/var/tmp/pbs.5076255.sched01/tmp2djcgp0g/84b3bpyveh.sdf

>  <i_m_source_file_index>  (188) 
24

>  <i_lp_mmshare_version>  (188) 
48012

>  <i_f3d_flags>  (188) 
0

>  <s_epik_input>  (188) 
W2NIXTFuW2NIXVtjSF1bY0hdYzFbQ0BASF0oQyg9TjIpW0NIM10pU2MoYzIzKWMoW0NIM10pbm4zW0NIM10=

>  <s_epik_cmdline>  (188) 
J2VwaWtfcHl0aG9uJywgJy1waHQnLCAnMi4wJywgJy1waCcsICc3LjAnLCAnLXRuJywgJzgnLCAnLW1hJywgJzIwMCcsICctaW1hZScsICc8aW5maWxlLm1hZT4nLCAnLW9tYWUnLCAnPG91dGZpbGUubWFlPic=

>  <r_lp_tautomer_probability>  (188) 
0.999601

>  <r_epik_Ionization_Penalty>  (188) 
0.000719815

>  <r_epik_Ionization_Penalty_Charging>  (188) 
0

>  <r_epik_Ionization_Penalty_Neutral>  (188) 
0.000719815

>  <r_epik_State_Penalty>  (188) 
0.000424059

>  <r_epik_Charging_Adjusted_Penalty>  (188) 
0.000424059

>  <i_epik_Tot_Q>  (188) 
0

>  <i_epik_Tot_abs_Q>  (188) 
0

>  <s_epik_Chemistry_Notes>  (188) 
This compound has an imine and may undergo hydrolysis.

>  <s_lp_Force_Field>  (188) 
OPLS3e

>  <r_lp_Energy>  (188) 
23.8826

>  <b_lp_Chiralities_Consistent>  (188) 
1

>  <s_lp_Variant>  (188) 
65:0-1

>  <s_i_glide_gridfile>  (188) 
pfpi4k_grid

>  <i_i_glide_lignum>  (188) 
24

>  <i_i_glide_rotatable_bonds>  (188) 
1

>  <r_i_docking_score>  (188) 
-3.68568

>  <r_i_glide_ligand_efficiency>  (188) 
-0.20476

>  <r_i_glide_ligand_efficiency_sa>  (188) 
-0.536623

>  <r_i_glide_ligand_efficiency_ln>  (188) 
-0.947385

>  <r_i_glide_gscore>  (188) 
-3.68568

>  <r_i_glide_lipo>  (188) 
-0.54553

>  <r_i_glide_hbond>  (188) 
0

>  <r_i_glide_metal>  (188) 
-0

>  <r_i_glide_rewards>  (188) 
-1.66969

>  <r_i_glide_evdw>  (188) 
-24.9444

>  <r_i_glide_ecoul>  (188) 
-3.20457

>  <r_i_glide_erotb>  (188) 
0.264649

>  <r_i_glide_esite>  (188) 
-0.00720004

>  <r_i_glide_emodel>  (188) 
-34.0755

>  <r_i_glide_energy>  (188) 
-28.149

>  <r_i_glide_einternal>  (188) 
0.467392

>  <r_i_glide_intrahb_reward>  (188) 
-0

>  <i_i_glide_confnum>  (188) 
1

>  <i_i_glide_posenum>  (188) 
4

>  <r_i_glide_eff_state_penalty>  (188) 
0

>  <ligand_id>  (188) 
65

>  <original_smiles>  (188) 
CC1=Nc2c(c(C)nn2C)SC1c1cccnc1

>  <smiles>  (188) 
[H]c1nc([H])c(C2([H])Sc3c(C([H])([H])[H])nn(C([H])([H])[H])c3N=C2C([H])([H])[H])c([H])c1[H]

$$$$
65:0:1
     RDKit          3D

 32 34  0  0  1  0  0  0  0  0999 V2000
    2.9595    0.0317    1.3922 C   0  0  0  0  0  0  0  0  0  0  0  0
    3.9751   -1.0748    1.1983 C   0  0  0  0  0  0  0  0  0  0  0  0
    4.0137   -2.0354    2.0366 N   0  0  0  0  0  0  0  0  0  0  0  0
    4.8964   -3.0818    1.8896 C   0  0  0  0  0  0  0  0  0  0  0  0
    5.9946   -3.1290    1.0951 C   0  0  0  0  0  0  0  0  0  0  0  0
    6.5572   -4.4229    1.2585 C   0  0  0  0  0  0  0  0  0  0  0  0
    7.7599   -5.0548    0.6303 C   0  0  0  0  0  0  0  0  0  0  0  0
    5.8148   -5.1273    2.1118 N   0  0  0  0  0  0  0  0  0  0  0  0
    4.7976   -4.3133    2.4949 N   0  0  0  0  0  0  0  0  0  0  0  0
    3.7858   -4.7803    3.4139 C   0  0  0  0  0  0  0  0  0  0  0  0
    6.4775   -1.8149    0.0503 S   0  0  0  0  0  0  0  0  0  0  0  0
    4.8742   -0.9432   -0.0480 C   0  0  1  0  0  0  0  0  0  0  0  0
    4.2045   -1.4257   -1.3326 C   0  0  0  0  0  0  0  0  0  0  0  0
    4.3942   -0.7247   -2.5416 C   0  0  0  0  0  0  0  0  0  0  0  0
    3.7838   -1.2005   -3.7166 C   0  0  0  0  0  0  0  0  0  0  0  0
    3.0001   -2.3670   -3.6301 C   0  0  0  0  0  0  0  0  0  0  0  0
    2.8283   -3.0560   -2.4948 N   0  0  0  0  0  0  0  0  0  0  0  0
    3.4137   -2.5964   -1.3734 C   0  0  0  0  0  0  0  0  0  0  0  0
    3.4365    1.0034    1.5099 H   0  0  0  0  0  0  0  0  0  0  0  0
    2.3692   -0.1591    2.2886 H   0  0  0  0  0  0  0  0  0  0  0  0
    2.2718    0.0691    0.5507 H   0  0  0  0  0  0  0  0  0  0  0  0
    8.2600   -4.3925   -0.0831 H   0  0  0  0  0  0  0  0  0  0  0  0
    7.4793   -5.9654    0.0991 H   0  0  0  0  0  0  0  0  0  0  0  0
    8.4872   -5.3444    1.3910 H   0  0  0  0  0  0  0  0  0  0  0  0
    2.8629   -4.2331    3.2436 H   0  0  0  0  0  0  0  0  0  0  0  0
    4.1153   -4.5984    4.4337 H   0  0  0  0  0  0  0  0  0  0  0  0
    3.5968   -5.8418    3.2671 H   0  0  0  0  0  0  0  0  0  0  0  0
    5.0945    0.1163   -0.1566 H   0  0  0  0  0  0  0  0  0  0  0  0
    5.0072    0.1612   -2.5731 H   0  0  0  0  0  0  0  0  0  0  0  0
    3.8892   -0.6699   -4.6526 H   0  0  0  0  0  0  0  0  0  0  0  0
    2.5042   -2.7621   -4.5006 H   0  0  0  0  0  0  0  0  0  0  0  0
    3.2437   -3.1953   -0.4904 H   0  0  0  0  0  0  0  0  0  0  0  0
  1  2  1  0
  1 19  1  0
  1 20  1  0
  1 21  1  0
  2 12  1  0
  2  3  2  0
  3  4  1  0
  4  9  1  0
  4  5  2  0
  5  6  1  0
  5 11  1  0
  6  7  1  0
  6  8  2  0
  7 22  1  0
  7 23  1  0
  7 24  1  0
  8  9  1  0
  9 10  1  0
 10 25  1  0
 10 26  1  0
 10 27  1  0
 11 12  1  0
 12 13  1  0
 12 28  1  6
 13 18  1  0
 13 14  2  0
 14 15  1  0
 14 29  1  0
 15 16  2  0
 15 30  1  0
 16 17  1  0
 16 31  1  0
 17 18  2  0
 18 32  1  0
M  END
>  <i_m_ct_stereo_status>  (189) 
1

>  <s_m_source_file>  (189) 
/var/tmp/pbs.5076255.sched01/tmp2djcgp0g/84b3bpyveh.sdf

>  <i_m_source_file_index>  (189) 
24

>  <i_lp_mmshare_version>  (189) 
48012

>  <i_f3d_flags>  (189) 
0

>  <s_epik_input>  (189) 
W2NIXTFuW2NIXVtjSF1bY0hdYzFbQ0BASF0oQyg9TjIpW0NIM10pU2MoYzIzKWMoW0NIM10pbm4zW0NIM10=

>  <s_epik_cmdline>  (189) 
J2VwaWtfcHl0aG9uJywgJy1waHQnLCAnMi4wJywgJy1waCcsICc3LjAnLCAnLXRuJywgJzgnLCAnLW1hJywgJzIwMCcsICctaW1hZScsICc8aW5maWxlLm1hZT4nLCAnLW9tYWUnLCAnPG91dGZpbGUubWFlPic=

>  <r_lp_tautomer_probability>  (189) 
0.999601

>  <r_epik_Ionization_Penalty>  (189) 
0.000719815

>  <r_epik_Ionization_Penalty_Charging>  (189) 
0

>  <r_epik_Ionization_Penalty_Neutral>  (189) 
0.000719815

>  <r_epik_State_Penalty>  (189) 
0.000424059

>  <r_epik_Charging_Adjusted_Penalty>  (189) 
0.000424059

>  <i_epik_Tot_Q>  (189) 
0

>  <i_epik_Tot_abs_Q>  (189) 
0

>  <s_epik_Chemistry_Notes>  (189) 
This compound has an imine and may undergo hydrolysis.

>  <s_lp_Force_Field>  (189) 
OPLS3e

>  <r_lp_Energy>  (189) 
23.8826

>  <b_lp_Chiralities_Consistent>  (189) 
1

>  <s_lp_Variant>  (189) 
65:0-1

>  <s_i_glide_gridfile>  (189) 
pfpi4k_grid

>  <i_i_glide_lignum>  (189) 
24

>  <i_i_glide_rotatable_bonds>  (189) 
1

>  <r_i_docking_score>  (189) 
-3.47955

>  <r_i_glide_ligand_efficiency>  (189) 
-0.193309

>  <r_i_glide_ligand_efficiency_sa>  (189) 
-0.506612

>  <r_i_glide_ligand_efficiency_ln>  (189) 
-0.894401

>  <r_i_glide_gscore>  (189) 
-3.47955

>  <r_i_glide_lipo>  (189) 
-0.826562

>  <r_i_glide_hbond>  (189) 
0

>  <r_i_glide_metal>  (189) 
-0

>  <r_i_glide_rewards>  (189) 
-1.67251

>  <r_i_glide_evdw>  (189) 
-25.2453

>  <r_i_glide_ecoul>  (189) 
0.143619

>  <r_i_glide_erotb>  (189) 
0.264649

>  <r_i_glide_esite>  (189) 
-0.00441195

>  <r_i_glide_emodel>  (189) 
-30.8738

>  <r_i_glide_energy>  (189) 
-25.1017

>  <r_i_glide_einternal>  (189) 
0.126149

>  <r_i_glide_intrahb_reward>  (189) 
-0

>  <i_i_glide_confnum>  (189) 
3

>  <i_i_glide_posenum>  (189) 
11

>  <r_i_glide_eff_state_penalty>  (189) 
0

>  <ligand_id>  (189) 
65

>  <original_smiles>  (189) 
CC1=Nc2c(c(C)nn2C)SC1c1cccnc1

>  <smiles>  (189) 
[H]c1nc([H])c(C2([H])Sc3c(C([H])([H])[H])nn(C([H])([H])[H])c3N=C2C([H])([H])[H])c([H])c1[H]

$$$$
65:0:2
     RDKit          3D

 32 34  0  0  1  0  0  0  0  0999 V2000
   -2.8360    3.1089    2.9616 C   0  0  0  0  0  0  0  0  0  0  0  0
   -1.9031    3.1932    4.1506 C   0  0  0  0  0  0  0  0  0  0  0  0
   -2.4011    3.3062    5.3166 N   0  0  0  0  0  0  0  0  0  0  0  0
   -1.5992    3.3681    6.4377 C   0  0  0  0  0  0  0  0  0  0  0  0
   -0.2664    3.6119    6.4816 C   0  0  0  0  0  0  0  0  0  0  0  0
    0.1145    3.5251    7.8479 C   0  0  0  0  0  0  0  0  0  0  0  0
    1.4526    3.6745    8.5005 C   0  0  0  0  0  0  0  0  0  0  0  0
   -0.9516    3.2307    8.5900 N   0  0  0  0  0  0  0  0  0  0  0  0
   -1.9991    3.1393    7.7330 N   0  0  0  0  0  0  0  0  0  0  0  0
   -3.3176    2.8238    8.2232 C   0  0  0  0  0  0  0  0  0  0  0  0
    0.7127    3.8687    5.0548 S   0  0  0  0  0  0  0  0  0  0  0  0
   -0.3976    3.1142    3.8170 C   0  0  1  0  0  0  0  0  0  0  0  0
    0.0808    1.6812    3.6109 C   0  0  0  0  0  0  0  0  0  0  0  0
    0.7386    1.3173    2.4193 C   0  0  0  0  0  0  0  0  0  0  0  0
    1.1969   -0.0062    2.2772 C   0  0  0  0  0  0  0  0  0  0  0  0
    0.9800   -0.9133    3.3333 C   0  0  0  0  0  0  0  0  0  0  0  0
    0.3587   -0.5813    4.4796 N   0  0  0  0  0  0  0  0  0  0  0  0
   -0.0696    0.6926    4.6111 C   0  0  0  0  0  0  0  0  0  0  0  0
   -2.6662    3.9251    2.2618 H   0  0  0  0  0  0  0  0  0  0  0  0
   -3.8719    3.1692    3.2970 H   0  0  0  0  0  0  0  0  0  0  0  0
   -2.7061    2.1603    2.4456 H   0  0  0  0  0  0  0  0  0  0  0  0
    2.2573    3.8654    7.7827 H   0  0  0  0  0  0  0  0  0  0  0  0
    1.7099    2.7705    9.0536 H   0  0  0  0  0  0  0  0  0  0  0  0
    1.4427    4.4943    9.2205 H   0  0  0  0  0  0  0  0  0  0  0  0
   -3.8782    2.3455    7.4268 H   0  0  0  0  0  0  0  0  0  0  0  0
   -3.8305    3.7382    8.5107 H   0  0  0  0  0  0  0  0  0  0  0  0
   -3.2560    2.1514    9.0775 H   0  0  0  0  0  0  0  0  0  0  0  0
   -0.2397    3.6650    2.8856 H   0  0  0  0  0  0  0  0  0  0  0  0
    0.8883    2.0349    1.6266 H   0  0  0  0  0  0  0  0  0  0  0  0
    1.6760   -0.3270    1.3636 H   0  0  0  0  0  0  0  0  0  0  0  0
    1.3023   -1.9376    3.2487 H   0  0  0  0  0  0  0  0  0  0  0  0
   -0.5415    0.9140    5.5582 H   0  0  0  0  0  0  0  0  0  0  0  0
  1  2  1  0
  1 19  1  0
  1 20  1  0
  1 21  1  0
  2 12  1  0
  2  3  2  0
  3  4  1  0
  4  9  1  0
  4  5  2  0
  5  6  1  0
  5 11  1  0
  6  7  1  0
  6  8  2  0
  7 22  1  0
  7 23  1  0
  7 24  1  0
  8  9  1  0
  9 10  1  0
 10 25  1  0
 10 26  1  0
 10 27  1  0
 11 12  1  0
 12 13  1  0
 12 28  1  6
 13 18  1  0
 13 14  2  0
 14 15  1  0
 14 29  1  0
 15 16  2  0
 15 30  1  0
 16 17  1  0
 16 31  1  0
 17 18  2  0
 18 32  1  0
M  END
>  <i_m_ct_stereo_status>  (190) 
1

>  <s_m_source_file>  (190) 
/var/tmp/pbs.5076255.sched01/tmp2djcgp0g/84b3bpyveh.sdf

>  <i_m_source_file_index>  (190) 
24

>  <i_lp_mmshare_version>  (190) 
48012

>  <i_f3d_flags>  (190) 
0

>  <s_epik_input>  (190) 
W2NIXTFuW2NIXVtjSF1bY0hdYzFbQ0BASF0oQyg9TjIpW0NIM10pU2MoYzIzKWMoW0NIM10pbm4zW0NIM10=

>  <s_epik_cmdline>  (190) 
J2VwaWtfcHl0aG9uJywgJy1waHQnLCAnMi4wJywgJy1waCcsICc3LjAnLCAnLXRuJywgJzgnLCAnLW1hJywgJzIwMCcsICctaW1hZScsICc8aW5maWxlLm1hZT4nLCAnLW9tYWUnLCAnPG91dGZpbGUubWFlPic=

>  <r_lp_tautomer_probability>  (190) 
0.999601

>  <r_epik_Ionization_Penalty>  (190) 
0.000719815

>  <r_epik_Ionization_Penalty_Charging>  (190) 
0

>  <r_epik_Ionization_Penalty_Neutral>  (190) 
0.000719815

>  <r_epik_State_Penalty>  (190) 
0.000424059

>  <r_epik_Charging_Adjusted_Penalty>  (190) 
0.000424059

>  <i_epik_Tot_Q>  (190) 
0

>  <i_epik_Tot_abs_Q>  (190) 
0

>  <s_epik_Chemistry_Notes>  (190) 
This compound has an imine and may undergo hydrolysis.

>  <s_lp_Force_Field>  (190) 
OPLS3e

>  <r_lp_Energy>  (190) 
23.8826

>  <b_lp_Chiralities_Consistent>  (190) 
1

>  <s_lp_Variant>  (190) 
65:0-1

>  <s_i_glide_gridfile>  (190) 
pfpi4k_grid

>  <i_i_glide_lignum>  (190) 
24

>  <i_i_glide_rotatable_bonds>  (190) 
1

>  <r_i_docking_score>  (190) 
-2.83668

>  <r_i_glide_ligand_efficiency>  (190) 
-0.157593

>  <r_i_glide_ligand_efficiency_sa>  (190) 
-0.413011

>  <r_i_glide_ligand_efficiency_ln>  (190) 
-0.729153

>  <r_i_glide_gscore>  (190) 
-2.83668

>  <r_i_glide_lipo>  (190) 
-0.0992242

>  <r_i_glide_hbond>  (190) 
0

>  <r_i_glide_metal>  (190) 
-0

>  <r_i_glide_rewards>  (190) 
-1.69156

>  <r_i_glide_evdw>  (190) 
-20.2501

>  <r_i_glide_ecoul>  (190) 
-1.72212

>  <r_i_glide_erotb>  (190) 
0.264649

>  <r_i_glide_esite>  (190) 
-0.0397236

>  <r_i_glide_emodel>  (190) 
-26.7174

>  <r_i_glide_energy>  (190) 
-21.9722

>  <r_i_glide_einternal>  (190) 
0.0108983

>  <r_i_glide_intrahb_reward>  (190) 
-0

>  <i_i_glide_confnum>  (190) 
3

>  <i_i_glide_posenum>  (190) 
29

>  <r_i_glide_eff_state_penalty>  (190) 
0

>  <ligand_id>  (190) 
65

>  <original_smiles>  (190) 
CC1=Nc2c(c(C)nn2C)SC1c1cccnc1

>  <smiles>  (190) 
[H]c1nc([H])c(C2([H])Sc3c(C([H])([H])[H])nn(C([H])([H])[H])c3N=C2C([H])([H])[H])c([H])c1[H]

$$$$
66:0:0
     RDKit          3D

 37 40  0  0  1  0  0  0  0  0999 V2000
    8.3085   -5.9991    4.9194 C   0  0  0  0  0  0  0  0  0  0  0  0
    7.5425   -7.1199    4.2577 C   0  0  0  0  0  0  0  0  0  0  0  0
    7.8164   -7.4949    2.9267 C   0  0  0  0  0  0  0  0  0  0  0  0
    7.0869   -8.5366    2.3166 C   0  0  0  0  0  0  0  0  0  0  0  0
    6.0851   -9.2229    3.0335 C   0  0  0  0  0  0  0  0  0  0  0  0
    5.3142  -10.3681    2.3724 C   0  0  2  0  0  0  0  0  0  0  0  0
    3.8789  -10.5028    2.8996 C   0  0  0  0  0  0  0  0  0  0  0  0
    2.8313   -9.8409    2.3697 C   0  0  0  0  0  0  0  0  0  0  0  0
    2.9141   -8.9947    1.3329 O   0  0  0  0  0  0  0  0  0  0  0  0
    1.3991   -9.9622    2.8595 C   0  0  0  0  0  0  0  0  0  0  0  0
    1.3024  -10.5321    4.2936 C   0  0  0  0  0  0  0  0  0  0  0  0
    2.4642  -11.4413    4.6492 C   0  0  0  0  0  0  0  0  0  0  0  0
    3.6357  -11.4466    3.9949 C   0  0  0  0  0  0  0  0  0  0  0  0
    4.6316  -12.3459    4.3474 N   0  0  0  0  0  0  0  0  0  0  0  0
    5.7508  -12.5319    3.5537 C   0  0  0  0  0  0  0  0  0  0  0  0
    6.5937  -13.5488    3.5631 N   0  0  0  0  0  0  0  0  0  0  0  0
    7.3718  -13.2028    2.4954 C   0  0  0  0  0  0  0  0  0  0  0  0
    7.0628  -12.0570    1.8794 N   0  0  0  0  0  0  0  0  0  0  0  0
    6.0128  -11.6211    2.6049 N   0  0  0  0  0  0  0  0  0  0  0  0
    5.8252   -8.8472    4.3733 C   0  0  0  0  0  0  0  0  0  0  0  0
    6.5463   -7.8013    4.9783 C   0  0  0  0  0  0  0  0  0  0  0  0
    8.8896   -5.4486    4.1862 H   0  0  0  0  0  0  0  0  0  0  0  0
    8.9981   -6.3911    5.6629 H   0  0  0  0  0  0  0  0  0  0  0  0
    7.6269   -5.3084    5.4144 H   0  0  0  0  0  0  0  0  0  0  0  0
    8.5927   -6.9912    2.3663 H   0  0  0  0  0  0  0  0  0  0  0  0
    7.3195   -8.8198    1.2986 H   0  0  0  0  0  0  0  0  0  0  0  0
    5.2851  -10.2173    1.2935 H   0  0  0  0  0  0  0  0  0  0  0  0
    4.4242  -13.0574    5.0351 H   0  0  0  0  0  0  0  0  0  0  0  0
    0.8769  -10.6298    2.1708 H   0  0  0  0  0  0  0  0  0  0  0  0
    0.8986   -8.9938    2.8081 H   0  0  0  0  0  0  0  0  0  0  0  0
    1.2829   -9.7264    5.0286 H   0  0  0  0  0  0  0  0  0  0  0  0
    0.3734  -11.0964    4.4059 H   0  0  0  0  0  0  0  0  0  0  0  0
    2.3033  -12.1104    5.4833 H   0  0  0  0  0  0  0  0  0  0  0  0
    8.1820  -13.8284    2.1445 H   0  0  0  0  0  0  0  0  0  0  0  0
    5.0732   -9.3548    4.9604 H   0  0  0  0  0  0  0  0  0  0  0  0
    6.3286   -7.5251    6.0009 H   0  0  0  0  0  0  0  0  0  0  0  0
    3.8091   -9.0066    1.0349 H   0  0  0  0  0  0  0  0  0  0  0  0
  1  2  1  0
  1 22  1  0
  1 23  1  0
  1 24  1  0
  2 21  2  0
  2  3  1  0
  3  4  2  0
  3 25  1  0
  4  5  1  0
  4 26  1  0
  5  6  1  0
  5 20  2  0
  6 19  1  0
  6 27  1  6
  6  7  1  0
  7  8  2  0
  7 13  1  0
  8  9  1  0
  8 10  1  0
  9 37  1  0
 10 11  1  0
 10 29  1  0
 10 30  1  0
 11 12  1  0
 11 31  1  0
 11 32  1  0
 12 33  1  0
 12 13  2  0
 13 14  1  0
 14 15  1  0
 14 28  1  0
 15 19  1  0
 15 16  2  0
 16 17  1  0
 17 18  2  0
 17 34  1  0
 18 19  1  0
 20 21  1  0
 20 35  1  0
 21 36  1  0
M  END
>  <i_m_ct_stereo_status>  (191) 
1

>  <s_m_source_file>  (191) 
/var/tmp/pbs.5076255.sched01/tmp2djcgp0g/84b3bpyveh.sdf

>  <i_m_source_file_index>  (191) 
25

>  <i_lp_mmshare_version>  (191) 
48012

>  <i_f3d_flags>  (191) 
0

>  <s_epik_input>  (191) 
W0NIM11jMVtjSF1bY0hdYyhbY0hdW2NIXTEpW0NASF0ybihuW2NIXW4zKWMzTj1DKFtDQEhdMjQpW0NIMl1bQ0gyXVtDSDJdQzQ9Tw==

>  <s_epik_cmdline>  (191) 
J2VwaWtfcHl0aG9uJywgJy1waHQnLCAnMi4wJywgJy1waCcsICc3LjAnLCAnLXRuJywgJzgnLCAnLW1hJywgJzIwMCcsICctaW1hZScsICc8aW5maWxlLm1hZT4nLCAnLW9tYWUnLCAnPG91dGZpbGUubWFlPic=

>  <r_epik_Ionization_Penalty>  (191) 
0.283612

>  <r_epik_Ionization_Penalty_Charging>  (191) 
3.423e-10

>  <r_epik_Ionization_Penalty_Neutral>  (191) 
0.283612

>  <r_epik_State_Penalty>  (191) 
0.276274

>  <r_epik_Charging_Adjusted_Penalty>  (191) 
0.276274

>  <i_epik_Tot_Q>  (191) 
0

>  <i_epik_Tot_abs_Q>  (191) 
0

>  <s_epik_Chemistry_Notes>  (191) 
This compound has an imine and may undergo hydrolysis.

>  <s_lp_Force_Field>  (191) 
OPLS3e

>  <r_lp_Energy>  (191) 
31.5223

>  <b_lp_Chiralities_Consistent>  (191) 
1

>  <s_lp_Variant>  (191) 
66:0-1

>  <s_i_glide_gridfile>  (191) 
pfpi4k_grid

>  <i_i_glide_lignum>  (191) 
25

>  <i_i_glide_rotatable_bonds>  (191) 
2

>  <r_i_docking_score>  (191) 
-3.09336

>  <r_i_glide_ligand_efficiency>  (191) 
-0.147303

>  <r_i_glide_ligand_efficiency_sa>  (191) 
-0.406397

>  <r_i_glide_ligand_efficiency_ln>  (191) 
-0.764826

>  <r_i_glide_gscore>  (191) 
-3.09336

>  <r_i_glide_lipo>  (191) 
-0.210786

>  <r_i_glide_hbond>  (191) 
0

>  <r_i_glide_metal>  (191) 
-0

>  <r_i_glide_rewards>  (191) 
-1.59559

>  <r_i_glide_evdw>  (191) 
-21.5292

>  <r_i_glide_ecoul>  (191) 
-2.22284

>  <r_i_glide_erotb>  (191) 
0.2298

>  <r_i_glide_esite>  (191) 
-0.1069

>  <r_i_glide_emodel>  (191) 
-28.3284

>  <r_i_glide_energy>  (191) 
-23.752

>  <r_i_glide_einternal>  (191) 
0.139659

>  <r_i_glide_intrahb_reward>  (191) 
-0

>  <i_i_glide_confnum>  (191) 
1

>  <i_i_glide_posenum>  (191) 
34

>  <r_i_glide_eff_state_penalty>  (191) 
0

>  <ligand_id>  (191) 
66

>  <original_smiles>  (191) 
Cc1ccc(C2C3C(=O)CCCC3=Nc3ncnn32)cc1

>  <smiles>  (191) 
[H]OC1=C2C(=C([H])C([H])([H])C1([H])[H])N([H])c1nc([H])nn1C2([H])c1c([H])c([H])c(C([H])([H])[H])c([H])c1[H]

$$$$
66:0:1
     RDKit          3D

 37 40  0  0  1  0  0  0  0  0999 V2000
    5.7538   -5.9262    0.3510 C   0  0  0  0  0  0  0  0  0  0  0  0
    4.6899   -6.7770    1.0032 C   0  0  0  0  0  0  0  0  0  0  0  0
    3.7259   -6.1753    1.8267 C   0  0  0  0  0  0  0  0  0  0  0  0
    2.7345   -6.9602    2.4402 C   0  0  0  0  0  0  0  0  0  0  0  0
    2.6773   -8.3642    2.2358 C   0  0  0  0  0  0  0  0  0  0  0  0
    1.6078   -9.2326    2.9158 C   0  0  2  0  0  0  0  0  0  0  0  0
    0.5396   -8.3966    3.6304 C   0  0  0  0  0  0  0  0  0  0  0  0
   -0.5668   -7.9314    3.0215 C   0  0  0  0  0  0  0  0  0  0  0  0
   -0.8772   -8.1271    1.7319 O   0  0  0  0  0  0  0  0  0  0  0  0
   -1.6193   -7.0819    3.6989 C   0  0  0  0  0  0  0  0  0  0  0  0
   -1.0975   -6.3736    4.9700 C   0  0  0  0  0  0  0  0  0  0  0  0
    0.0034   -7.1492    5.6605 C   0  0  0  0  0  0  0  0  0  0  0  0
    0.7395   -8.0906    5.0518 C   0  0  0  0  0  0  0  0  0  0  0  0
    1.7168   -8.7777    5.7549 N   0  0  0  0  0  0  0  0  0  0  0  0
    2.3614   -9.8761    5.2087 C   0  0  0  0  0  0  0  0  0  0  0  0
    3.0668  -10.7835    5.8516 N   0  0  0  0  0  0  0  0  0  0  0  0
    3.2585  -11.6694    4.8239 C   0  0  0  0  0  0  0  0  0  0  0  0
    2.8201  -11.2884    3.6197 N   0  0  0  0  0  0  0  0  0  0  0  0
    2.2352  -10.1013    3.8992 N   0  0  0  0  0  0  0  0  0  0  0  0
    3.6493   -8.9610    1.4037 C   0  0  0  0  0  0  0  0  0  0  0  0
    4.6484   -8.1713    0.7967 C   0  0  0  0  0  0  0  0  0  0  0  0
    5.7862   -4.9247    0.7764 H   0  0  0  0  0  0  0  0  0  0  0  0
    5.5387   -5.8219   -0.7116 H   0  0  0  0  0  0  0  0  0  0  0  0
    6.7384   -6.3726    0.4766 H   0  0  0  0  0  0  0  0  0  0  0  0
    3.7357   -5.1088    1.9988 H   0  0  0  0  0  0  0  0  0  0  0  0
    2.0339   -6.4412    3.0772 H   0  0  0  0  0  0  0  0  0  0  0  0
    1.1347   -9.8721    2.1716 H   0  0  0  0  0  0  0  0  0  0  0  0
    1.7906   -8.6678    6.7536 H   0  0  0  0  0  0  0  0  0  0  0  0
   -2.4494   -7.7457    3.9477 H   0  0  0  0  0  0  0  0  0  0  0  0
   -2.0038   -6.3586    2.9920 H   0  0  0  0  0  0  0  0  0  0  0  0
   -0.6744   -5.3950    4.7456 H   0  0  0  0  0  0  0  0  0  0  0  0
   -1.9237   -6.2310    5.6691 H   0  0  0  0  0  0  0  0  0  0  0  0
    0.1781   -6.8914    6.6964 H   0  0  0  0  0  0  0  0  0  0  0  0
    3.7548  -12.6224    4.9655 H   0  0  0  0  0  0  0  0  0  0  0  0
    3.6453  -10.0330    1.2420 H   0  0  0  0  0  0  0  0  0  0  0  0
    5.3816   -8.6533    0.1674 H   0  0  0  0  0  0  0  0  0  0  0  0
   -0.2465   -8.7321    1.3675 H   0  0  0  0  0  0  0  0  0  0  0  0
  1  2  1  0
  1 22  1  0
  1 23  1  0
  1 24  1  0
  2 21  2  0
  2  3  1  0
  3  4  2  0
  3 25  1  0
  4  5  1  0
  4 26  1  0
  5  6  1  0
  5 20  2  0
  6 19  1  0
  6 27  1  6
  6  7  1  0
  7  8  2  0
  7 13  1  0
  8  9  1  0
  8 10  1  0
  9 37  1  0
 10 11  1  0
 10 29  1  0
 10 30  1  0
 11 12  1  0
 11 31  1  0
 11 32  1  0
 12 33  1  0
 12 13  2  0
 13 14  1  0
 14 15  1  0
 14 28  1  0
 15 19  1  0
 15 16  2  0
 16 17  1  0
 17 18  2  0
 17 34  1  0
 18 19  1  0
 20 21  1  0
 20 35  1  0
 21 36  1  0
M  END
>  <i_m_ct_stereo_status>  (192) 
1

>  <s_m_source_file>  (192) 
/var/tmp/pbs.5076255.sched01/tmp2djcgp0g/84b3bpyveh.sdf

>  <i_m_source_file_index>  (192) 
25

>  <i_lp_mmshare_version>  (192) 
48012

>  <i_f3d_flags>  (192) 
0

>  <s_epik_input>  (192) 
W0NIM11jMVtjSF1bY0hdYyhbY0hdW2NIXTEpW0NASF0ybihuW2NIXW4zKWMzTj1DKFtDQEhdMjQpW0NIMl1bQ0gyXVtDSDJdQzQ9Tw==

>  <s_epik_cmdline>  (192) 
J2VwaWtfcHl0aG9uJywgJy1waHQnLCAnMi4wJywgJy1waCcsICc3LjAnLCAnLXRuJywgJzgnLCAnLW1hJywgJzIwMCcsICctaW1hZScsICc8aW5maWxlLm1hZT4nLCAnLW9tYWUnLCAnPG91dGZpbGUubWFlPic=

>  <r_epik_Ionization_Penalty>  (192) 
0.283612

>  <r_epik_Ionization_Penalty_Charging>  (192) 
3.423e-10

>  <r_epik_Ionization_Penalty_Neutral>  (192) 
0.283612

>  <r_epik_State_Penalty>  (192) 
0.276274

>  <r_epik_Charging_Adjusted_Penalty>  (192) 
0.276274

>  <i_epik_Tot_Q>  (192) 
0

>  <i_epik_Tot_abs_Q>  (192) 
0

>  <s_epik_Chemistry_Notes>  (192) 
This compound has an imine and may undergo hydrolysis.

>  <s_lp_Force_Field>  (192) 
OPLS3e

>  <r_lp_Energy>  (192) 
31.5223

>  <b_lp_Chiralities_Consistent>  (192) 
1

>  <s_lp_Variant>  (192) 
66:0-1

>  <s_i_glide_gridfile>  (192) 
pfpi4k_grid

>  <i_i_glide_lignum>  (192) 
25

>  <i_i_glide_rotatable_bonds>  (192) 
2

>  <r_i_docking_score>  (192) 
-3.04381

>  <r_i_glide_ligand_efficiency>  (192) 
-0.144943

>  <r_i_glide_ligand_efficiency_sa>  (192) 
-0.399887

>  <r_i_glide_ligand_efficiency_ln>  (192) 
-0.752575

>  <r_i_glide_gscore>  (192) 
-3.04381

>  <r_i_glide_lipo>  (192) 
-0.222582

>  <r_i_glide_hbond>  (192) 
-0.239298

>  <r_i_glide_metal>  (192) 
-0

>  <r_i_glide_rewards>  (192) 
-1.49779

>  <r_i_glide_evdw>  (192) 
-19.4579

>  <r_i_glide_ecoul>  (192) 
-1.52192

>  <r_i_glide_erotb>  (192) 
0.2298

>  <r_i_glide_esite>  (192) 
-0.112756

>  <r_i_glide_emodel>  (192) 
-24.9905

>  <r_i_glide_energy>  (192) 
-20.9798

>  <r_i_glide_einternal>  (192) 
1.14726

>  <r_i_glide_intrahb_reward>  (192) 
-0

>  <i_i_glide_confnum>  (192) 
3

>  <i_i_glide_posenum>  (192) 
32

>  <r_i_glide_eff_state_penalty>  (192) 
0

>  <ligand_id>  (192) 
66

>  <original_smiles>  (192) 
Cc1ccc(C2C3C(=O)CCCC3=Nc3ncnn32)cc1

>  <smiles>  (192) 
[H]OC1=C2C(=C([H])C([H])([H])C1([H])[H])N([H])c1nc([H])nn1C2([H])c1c([H])c([H])c(C([H])([H])[H])c([H])c1[H]

$$$$
66:0:2
     RDKit          3D

 37 40  0  0  1  0  0  0  0  0999 V2000
    6.5832   -5.1280    2.2342 C   0  0  0  0  0  0  0  0  0  0  0  0
    5.4489   -6.1227    2.3331 C   0  0  0  0  0  0  0  0  0  0  0  0
    5.2536   -7.0881    1.3263 C   0  0  0  0  0  0  0  0  0  0  0  0
    4.1909   -8.0132    1.4201 C   0  0  0  0  0  0  0  0  0  0  0  0
    3.3115   -7.9798    2.5246 C   0  0  0  0  0  0  0  0  0  0  0  0
    2.1687   -8.9911    2.6271 C   0  0  2  0  0  0  0  0  0  0  0  0
    0.9187   -8.4142    3.2975 C   0  0  0  0  0  0  0  0  0  0  0  0
   -0.0513   -7.7545    2.6277 C   0  0  0  0  0  0  0  0  0  0  0  0
   -0.0487   -7.4978    1.3142 O   0  0  0  0  0  0  0  0  0  0  0  0
   -1.3061   -7.2082    3.2672 C   0  0  0  0  0  0  0  0  0  0  0  0
   -1.1467   -6.9640    4.7788 C   0  0  0  0  0  0  0  0  0  0  0  0
   -0.1708   -7.9359    5.4224 C   0  0  0  0  0  0  0  0  0  0  0  0
    0.7578   -8.6245    4.7410 C   0  0  0  0  0  0  0  0  0  0  0  0
    1.5927   -9.5216    5.3970 N   0  0  0  0  0  0  0  0  0  0  0  0
    2.4172  -10.3796    4.6906 C   0  0  0  0  0  0  0  0  0  0  0  0
    3.0051  -11.4705    5.1359 N   0  0  0  0  0  0  0  0  0  0  0  0
    3.5302  -11.9305    3.9593 C   0  0  0  0  0  0  0  0  0  0  0  0
    3.3600  -11.1484    2.8910 N   0  0  0  0  0  0  0  0  0  0  0  0
    2.6194  -10.1390    3.3965 N   0  0  0  0  0  0  0  0  0  0  0  0
    3.5239   -7.0142    3.5392 C   0  0  0  0  0  0  0  0  0  0  0  0
    4.5852   -6.0916    3.4435 C   0  0  0  0  0  0  0  0  0  0  0  0
    7.0296   -5.1232    1.2425 H   0  0  0  0  0  0  0  0  0  0  0  0
    7.3653   -5.3824    2.9447 H   0  0  0  0  0  0  0  0  0  0  0  0
    6.2262   -4.1224    2.4488 H   0  0  0  0  0  0  0  0  0  0  0  0
    5.9179   -7.1123    0.4798 H   0  0  0  0  0  0  0  0  0  0  0  0
    4.0596   -8.7610    0.6451 H   0  0  0  0  0  0  0  0  0  0  0  0
    1.8969   -9.3617    1.6419 H   0  0  0  0  0  0  0  0  0  0  0  0
    1.4280   -9.7658    6.3609 H   0  0  0  0  0  0  0  0  0  0  0  0
   -2.1125   -7.9256    3.0855 H   0  0  0  0  0  0  0  0  0  0  0  0
   -1.5849   -6.2856    2.7744 H   0  0  0  0  0  0  0  0  0  0  0  0
   -0.7949   -5.9538    4.9878 H   0  0  0  0  0  0  0  0  0  0  0  0
   -2.1271   -7.0602    5.2356 H   0  0  0  0  0  0  0  0  0  0  0  0
   -0.2371   -8.0594    6.4929 H   0  0  0  0  0  0  0  0  0  0  0  0
    4.0559  -12.8724    3.8898 H   0  0  0  0  0  0  0  0  0  0  0  0
    2.8871   -6.9690    4.4098 H   0  0  0  0  0  0  0  0  0  0  0  0
    4.7331   -5.3581    4.2276 H   0  0  0  0  0  0  0  0  0  0  0  0
    0.5836   -8.0838    0.9256 H   0  0  0  0  0  0  0  0  0  0  0  0
  1  2  1  0
  1 22  1  0
  1 23  1  0
  1 24  1  0
  2 21  2  0
  2  3  1  0
  3  4  2  0
  3 25  1  0
  4  5  1  0
  4 26  1  0
  5  6  1  0
  5 20  2  0
  6 19  1  0
  6 27  1  6
  6  7  1  0
  7  8  2  0
  7 13  1  0
  8  9  1  0
  8 10  1  0
  9 37  1  0
 10 11  1  0
 10 29  1  0
 10 30  1  0
 11 12  1  0
 11 31  1  0
 11 32  1  0
 12 33  1  0
 12 13  2  0
 13 14  1  0
 14 15  1  0
 14 28  1  0
 15 19  1  0
 15 16  2  0
 16 17  1  0
 17 18  2  0
 17 34  1  0
 18 19  1  0
 20 21  1  0
 20 35  1  0
 21 36  1  0
M  END
>  <i_m_ct_stereo_status>  (193) 
1

>  <s_m_source_file>  (193) 
/var/tmp/pbs.5076255.sched01/tmp2djcgp0g/84b3bpyveh.sdf

>  <i_m_source_file_index>  (193) 
25

>  <i_lp_mmshare_version>  (193) 
48012

>  <i_f3d_flags>  (193) 
0

>  <s_epik_input>  (193) 
W0NIM11jMVtjSF1bY0hdYyhbY0hdW2NIXTEpW0NASF0ybihuW2NIXW4zKWMzTj1DKFtDQEhdMjQpW0NIMl1bQ0gyXVtDSDJdQzQ9Tw==

>  <s_epik_cmdline>  (193) 
J2VwaWtfcHl0aG9uJywgJy1waHQnLCAnMi4wJywgJy1waCcsICc3LjAnLCAnLXRuJywgJzgnLCAnLW1hJywgJzIwMCcsICctaW1hZScsICc8aW5maWxlLm1hZT4nLCAnLW9tYWUnLCAnPG91dGZpbGUubWFlPic=

>  <r_epik_Ionization_Penalty>  (193) 
0.283612

>  <r_epik_Ionization_Penalty_Charging>  (193) 
3.423e-10

>  <r_epik_Ionization_Penalty_Neutral>  (193) 
0.283612

>  <r_epik_State_Penalty>  (193) 
0.276274

>  <r_epik_Charging_Adjusted_Penalty>  (193) 
0.276274

>  <i_epik_Tot_Q>  (193) 
0

>  <i_epik_Tot_abs_Q>  (193) 
0

>  <s_epik_Chemistry_Notes>  (193) 
This compound has an imine and may undergo hydrolysis.

>  <s_lp_Force_Field>  (193) 
OPLS3e

>  <r_lp_Energy>  (193) 
31.5223

>  <b_lp_Chiralities_Consistent>  (193) 
1

>  <s_lp_Variant>  (193) 
66:0-1

>  <s_i_glide_gridfile>  (193) 
pfpi4k_grid

>  <i_i_glide_lignum>  (193) 
25

>  <i_i_glide_rotatable_bonds>  (193) 
2

>  <r_i_docking_score>  (193) 
-2.50271

>  <r_i_glide_ligand_efficiency>  (193) 
-0.119177

>  <r_i_glide_ligand_efficiency_sa>  (193) 
-0.328799

>  <r_i_glide_ligand_efficiency_ln>  (193) 
-0.61879

>  <r_i_glide_gscore>  (193) 
-2.50271

>  <r_i_glide_lipo>  (193) 
-0.149002

>  <r_i_glide_hbond>  (193) 
-0.087364

>  <r_i_glide_metal>  (193) 
-0

>  <r_i_glide_rewards>  (193) 
-1.49779

>  <r_i_glide_evdw>  (193) 
-18.5515

>  <r_i_glide_ecoul>  (193) 
0.192244

>  <r_i_glide_erotb>  (193) 
0.2298

>  <r_i_glide_esite>  (193) 
-0.0996162

>  <r_i_glide_emodel>  (193) 
-21.6486

>  <r_i_glide_energy>  (193) 
-18.3593

>  <r_i_glide_einternal>  (193) 
0.619137

>  <r_i_glide_intrahb_reward>  (193) 
-0

>  <i_i_glide_confnum>  (193) 
1

>  <i_i_glide_posenum>  (193) 
4

>  <r_i_glide_eff_state_penalty>  (193) 
0

>  <ligand_id>  (193) 
66

>  <original_smiles>  (193) 
Cc1ccc(C2C3C(=O)CCCC3=Nc3ncnn32)cc1

>  <smiles>  (193) 
[H]OC1=C2C(=C([H])C([H])([H])C1([H])[H])N([H])c1nc([H])nn1C2([H])c1c([H])c([H])c(C([H])([H])[H])c([H])c1[H]

$$$$
66:1:0
     RDKit          3D

 36 39  0  0  1  0  0  0  0  0999 V2000
   -6.5852   -4.5219   -3.9093 C   0  0  0  0  0  0  0  0  0  0  0  0
   -6.6267   -5.6188   -4.9416 C   0  0  0  0  0  0  0  0  0  0  0  0
   -7.6969   -5.6952   -5.8503 C   0  0  0  0  0  0  0  0  0  0  0  0
   -7.7315   -6.7213   -6.8096 C   0  0  0  0  0  0  0  0  0  0  0  0
   -6.7051   -7.6954   -6.8767 C   0  0  0  0  0  0  0  0  0  0  0  0
   -6.7559   -8.8169   -7.9279 C   0  0  2  0  0  0  0  0  0  0  0  0
   -8.1481   -8.9942   -8.5420 C   0  0  0  0  0  0  0  0  0  0  0  0
   -8.5642   -8.2820   -9.6624 C   0  0  0  0  0  0  0  0  0  0  0  0
   -7.9802   -7.4109  -10.3530 O   0  0  0  0  0  0  0  0  0  0  0  0
   -9.9658   -8.5038  -10.2331 C   0  0  0  0  0  0  0  0  0  0  0  0
  -10.9972   -9.0056   -9.2008 C   0  0  0  0  0  0  0  0  0  0  0  0
  -10.3771   -9.9527   -8.2027 C   0  0  0  0  0  0  0  0  0  0  0  0
   -9.0640   -9.9668   -7.9284 C   0  0  0  0  0  0  0  0  0  0  0  0
   -8.5435  -10.8923   -7.0345 N   0  0  0  0  0  0  0  0  0  0  0  0
   -7.1743  -11.0493   -6.8709 C   0  0  0  0  0  0  0  0  0  0  0  0
   -6.5376  -12.0884   -6.3498 N   0  0  0  0  0  0  0  0  0  0  0  0
   -5.2440  -11.6887   -6.5799 C   0  0  0  0  0  0  0  0  0  0  0  0
   -5.0863  -10.5200   -7.2028 N   0  0  0  0  0  0  0  0  0  0  0  0
   -6.3672  -10.0996   -7.3499 N   0  0  0  0  0  0  0  0  0  0  0  0
   -5.6287   -7.6008   -5.9624 C   0  0  0  0  0  0  0  0  0  0  0  0
   -5.5958   -6.5747   -4.9997 C   0  0  0  0  0  0  0  0  0  0  0  0
   -7.4432   -3.8609   -4.0026 H   0  0  0  0  0  0  0  0  0  0  0  0
   -5.6842   -3.9213   -4.0324 H   0  0  0  0  0  0  0  0  0  0  0  0
   -6.5926   -4.9477   -2.9070 H   0  0  0  0  0  0  0  0  0  0  0  0
   -8.5035   -4.9773   -5.8233 H   0  0  0  0  0  0  0  0  0  0  0  0
   -8.5695   -6.7409   -7.4900 H   0  0  0  0  0  0  0  0  0  0  0  0
   -6.0505   -8.5752   -8.7214 H   0  0  0  0  0  0  0  0  0  0  0  0
   -9.1422  -11.6267   -6.6916 H   0  0  0  0  0  0  0  0  0  0  0  0
   -9.8847   -9.2364  -11.0385 H   0  0  0  0  0  0  0  0  0  0  0  0
  -10.3450   -7.5863  -10.6910 H   0  0  0  0  0  0  0  0  0  0  0  0
  -11.4364   -8.1704   -8.6557 H   0  0  0  0  0  0  0  0  0  0  0  0
  -11.8086   -9.5154   -9.7213 H   0  0  0  0  0  0  0  0  0  0  0  0
  -11.0542  -10.6341   -7.7085 H   0  0  0  0  0  0  0  0  0  0  0  0
   -4.3905  -12.2847   -6.2930 H   0  0  0  0  0  0  0  0  0  0  0  0
   -4.8135   -8.3095   -5.9834 H   0  0  0  0  0  0  0  0  0  0  0  0
   -4.7717   -6.5290   -4.3078 H   0  0  0  0  0  0  0  0  0  0  0  0
  1  2  1  0
  1 22  1  0
  1 23  1  0
  1 24  1  0
  2 21  2  0
  2  3  1  0
  3  4  2  0
  3 25  1  0
  4  5  1  0
  4 26  1  0
  5  6  1  0
  5 20  2  0
  6 19  1  0
  6 27  1  6
  6  7  1  0
  7  8  2  0
  7 13  1  0
  8  9  1  0
  8 10  1  0
 10 11  1  0
 10 29  1  0
 10 30  1  0
 11 12  1  0
 11 31  1  0
 11 32  1  0
 12 33  1  0
 12 13  2  0
 13 14  1  0
 14 15  1  0
 14 28  1  0
 15 19  1  0
 15 16  2  0
 16 17  1  0
 17 18  2  0
 17 34  1  0
 18 19  1  0
 20 21  1  0
 20 35  1  0
 21 36  1  0
M  CHG  1   9  -1
M  END
>  <i_m_ct_stereo_status>  (194) 
1

>  <s_m_source_file>  (194) 
/var/tmp/pbs.5076255.sched01/tmp2djcgp0g/84b3bpyveh.sdf

>  <i_m_source_file_index>  (194) 
26

>  <i_lp_mmshare_version>  (194) 
48012

>  <i_f3d_flags>  (194) 
0

>  <s_epik_input>  (194) 
W0NIM11jMVtjSF1bY0hdYyhbY0hdW2NIXTEpW0NASF0ybihuW2NIXW4zKWMzTj1DKFtDQEhdMjQpW0NIMl1bQ0gyXVtDSDJdQzQ9Tw==

>  <s_epik_cmdline>  (194) 
J2VwaWtfcHl0aG9uJywgJy1waHQnLCAnMi4wJywgJy1waCcsICc3LjAnLCAnLXRuJywgJzgnLCAnLW1hJywgJzIwMCcsICctaW1hZScsICc8aW5maWxlLm1hZT4nLCAnLW9tYWUnLCAnPG91dGZpbGUubWFlPic=

>  <r_epik_Ionization_Penalty>  (194) 
0.572714

>  <r_epik_Ionization_Penalty_Charging>  (194) 
0.572714

>  <r_epik_Ionization_Penalty_Neutral>  (194) 
5.9558e-07

>  <r_epik_State_Penalty>  (194) 
0.584806

>  <r_epik_Charging_Adjusted_Penalty>  (194) 
1.15752

>  <i_epik_Tot_Q>  (194) 
-1

>  <i_epik_Tot_abs_Q>  (194) 
1

>  <s_epik_Chemistry_Notes>  (194) 
This compound has an imine and may undergo hydrolysis.

>  <s_lp_Force_Field>  (194) 
OPLS3e

>  <r_lp_Energy>  (194) 
30.7492

>  <b_lp_Chiralities_Consistent>  (194) 
1

>  <s_lp_Variant>  (194) 
66:0-2

>  <s_i_glide_gridfile>  (194) 
pfpi4k_grid

>  <i_i_glide_lignum>  (194) 
26

>  <i_i_glide_rotatable_bonds>  (194) 
1

>  <r_i_docking_score>  (194) 
-5.70647

>  <r_i_glide_ligand_efficiency>  (194) 
-0.271737

>  <r_i_glide_ligand_efficiency_sa>  (194) 
-0.749701

>  <r_i_glide_ligand_efficiency_ln>  (194) 
-1.41091

>  <r_i_glide_gscore>  (194) 
-5.70647

>  <r_i_glide_lipo>  (194) 
-2.34557

>  <r_i_glide_hbond>  (194) 
0

>  <r_i_glide_metal>  (194) 
-0

>  <r_i_glide_rewards>  (194) 
-1.94683

>  <r_i_glide_evdw>  (194) 
-30.0862

>  <r_i_glide_ecoul>  (194) 
-0.939964

>  <r_i_glide_erotb>  (194) 
0.231243

>  <r_i_glide_esite>  (194) 
0

>  <r_i_glide_emodel>  (194) 
-42.3778

>  <r_i_glide_energy>  (194) 
-31.0262

>  <r_i_glide_einternal>  (194) 
1.53563

>  <r_i_glide_intrahb_reward>  (194) 
-0

>  <i_i_glide_confnum>  (194) 
1

>  <i_i_glide_posenum>  (194) 
24

>  <r_i_glide_eff_state_penalty>  (194) 
0

>  <ligand_id>  (194) 
66

>  <original_smiles>  (194) 
Cc1ccc(C2C3C(=O)CCCC3=Nc3ncnn32)cc1

>  <smiles>  (194) 
[H]C1=C2C(=C([O-])C([H])([H])C1([H])[H])C([H])(c1c([H])c([H])c(C([H])([H])[H])c([H])c1[H])n1nc([H])nc1N2[H]

$$$$
66:1:1
     RDKit          3D

 36 39  0  0  1  0  0  0  0  0999 V2000
    4.5693   -2.3112    4.5876 C   0  0  0  0  0  0  0  0  0  0  0  0
    4.0450   -3.5174    3.8397 C   0  0  0  0  0  0  0  0  0  0  0  0
    3.8023   -3.4550    2.4523 C   0  0  0  0  0  0  0  0  0  0  0  0
    3.3235   -4.5871    1.7648 C   0  0  0  0  0  0  0  0  0  0  0  0
    3.0863   -5.7922    2.4628 C   0  0  0  0  0  0  0  0  0  0  0  0
    2.5700   -7.0238    1.7195 C   0  0  2  0  0  0  0  0  0  0  0  0
    1.2732   -7.5566    2.3233 C   0  0  0  0  0  0  0  0  0  0  0  0
    0.0410   -7.1203    1.8814 C   0  0  0  0  0  0  0  0  0  0  0  0
   -0.2330   -6.2568    1.0188 O   0  0  0  0  0  0  0  0  0  0  0  0
   -1.2482   -7.7279    2.4615 C   0  0  0  0  0  0  0  0  0  0  0  0
   -1.0849   -8.3040    3.8806 C   0  0  0  0  0  0  0  0  0  0  0  0
    0.2627   -8.9524    4.0657 C   0  0  0  0  0  0  0  0  0  0  0  0
    1.3345   -8.6278    3.3179 C   0  0  0  0  0  0  0  0  0  0  0  0
    2.5339   -9.3049    3.4815 N   0  0  0  0  0  0  0  0  0  0  0  0
    3.5959   -9.1198    2.6025 C   0  0  0  0  0  0  0  0  0  0  0  0
    4.6682   -9.8860    2.4677 N   0  0  0  0  0  0  0  0  0  0  0  0
    5.2275   -9.2811    1.3711 C   0  0  0  0  0  0  0  0  0  0  0  0
    4.6134   -8.1827    0.9177 N   0  0  0  0  0  0  0  0  0  0  0  0
    3.5551   -8.0946    1.7521 N   0  0  0  0  0  0  0  0  0  0  0  0
    3.3204   -5.8449    3.8559 C   0  0  0  0  0  0  0  0  0  0  0  0
    3.7993   -4.7138    4.5399 C   0  0  0  0  0  0  0  0  0  0  0  0
    4.7287   -1.4628    3.9214 H   0  0  0  0  0  0  0  0  0  0  0  0
    5.5202   -2.5482    5.0677 H   0  0  0  0  0  0  0  0  0  0  0  0
    3.8608   -2.0071    5.3595 H   0  0  0  0  0  0  0  0  0  0  0  0
    3.9826   -2.5408    1.9076 H   0  0  0  0  0  0  0  0  0  0  0  0
    3.1362   -4.5285    0.7001 H   0  0  0  0  0  0  0  0  0  0  0  0
    2.3944   -6.7678    0.6787 H   0  0  0  0  0  0  0  0  0  0  0  0
    2.5718  -10.1131    4.0850 H   0  0  0  0  0  0  0  0  0  0  0  0
   -1.5835   -8.5282    1.7973 H   0  0  0  0  0  0  0  0  0  0  0  0
   -2.0591   -7.0010    2.4804 H   0  0  0  0  0  0  0  0  0  0  0  0
   -1.1934   -7.5237    4.6306 H   0  0  0  0  0  0  0  0  0  0  0  0
   -1.8613   -9.0466    4.0671 H   0  0  0  0  0  0  0  0  0  0  0  0
    0.3340   -9.7102    4.8355 H   0  0  0  0  0  0  0  0  0  0  0  0
    6.1301   -9.6468    0.9034 H   0  0  0  0  0  0  0  0  0  0  0  0
    3.1308   -6.7574    4.4043 H   0  0  0  0  0  0  0  0  0  0  0  0
    3.9781   -4.7713    5.6022 H   0  0  0  0  0  0  0  0  0  0  0  0
  1  2  1  0
  1 22  1  0
  1 23  1  0
  1 24  1  0
  2 21  2  0
  2  3  1  0
  3  4  2  0
  3 25  1  0
  4  5  1  0
  4 26  1  0
  5  6  1  0
  5 20  2  0
  6 19  1  0
  6 27  1  6
  6  7  1  0
  7  8  2  0
  7 13  1  0
  8  9  1  0
  8 10  1  0
 10 11  1  0
 10 29  1  0
 10 30  1  0
 11 12  1  0
 11 31  1  0
 11 32  1  0
 12 33  1  0
 12 13  2  0
 13 14  1  0
 14 15  1  0
 14 28  1  0
 15 19  1  0
 15 16  2  0
 16 17  1  0
 17 18  2  0
 17 34  1  0
 18 19  1  0
 20 21  1  0
 20 35  1  0
 21 36  1  0
M  CHG  1   9  -1
M  END
>  <i_m_ct_stereo_status>  (195) 
1

>  <s_m_source_file>  (195) 
/var/tmp/pbs.5076255.sched01/tmp2djcgp0g/84b3bpyveh.sdf

>  <i_m_source_file_index>  (195) 
26

>  <i_lp_mmshare_version>  (195) 
48012

>  <i_f3d_flags>  (195) 
0

>  <s_epik_input>  (195) 
W0NIM11jMVtjSF1bY0hdYyhbY0hdW2NIXTEpW0NASF0ybihuW2NIXW4zKWMzTj1DKFtDQEhdMjQpW0NIMl1bQ0gyXVtDSDJdQzQ9Tw==

>  <s_epik_cmdline>  (195) 
J2VwaWtfcHl0aG9uJywgJy1waHQnLCAnMi4wJywgJy1waCcsICc3LjAnLCAnLXRuJywgJzgnLCAnLW1hJywgJzIwMCcsICctaW1hZScsICc8aW5maWxlLm1hZT4nLCAnLW9tYWUnLCAnPG91dGZpbGUubWFlPic=

>  <r_epik_Ionization_Penalty>  (195) 
0.572714

>  <r_epik_Ionization_Penalty_Charging>  (195) 
0.572714

>  <r_epik_Ionization_Penalty_Neutral>  (195) 
5.9558e-07

>  <r_epik_State_Penalty>  (195) 
0.584806

>  <r_epik_Charging_Adjusted_Penalty>  (195) 
1.15752

>  <i_epik_Tot_Q>  (195) 
-1

>  <i_epik_Tot_abs_Q>  (195) 
1

>  <s_epik_Chemistry_Notes>  (195) 
This compound has an imine and may undergo hydrolysis.

>  <s_lp_Force_Field>  (195) 
OPLS3e

>  <r_lp_Energy>  (195) 
30.7492

>  <b_lp_Chiralities_Consistent>  (195) 
1

>  <s_lp_Variant>  (195) 
66:0-2

>  <s_i_glide_gridfile>  (195) 
pfpi4k_grid

>  <i_i_glide_lignum>  (195) 
26

>  <i_i_glide_rotatable_bonds>  (195) 
1

>  <r_i_docking_score>  (195) 
-2.62645

>  <r_i_glide_ligand_efficiency>  (195) 
-0.125069

>  <r_i_glide_ligand_efficiency_sa>  (195) 
-0.345056

>  <r_i_glide_ligand_efficiency_ln>  (195) 
-0.649385

>  <r_i_glide_gscore>  (195) 
-2.62645

>  <r_i_glide_lipo>  (195) 
-0.0242429

>  <r_i_glide_hbond>  (195) 
-0.319361

>  <r_i_glide_metal>  (195) 
-0

>  <r_i_glide_rewards>  (195) 
-1.50466

>  <r_i_glide_evdw>  (195) 
-19.5614

>  <r_i_glide_ecoul>  (195) 
0.305633

>  <r_i_glide_erotb>  (195) 
0.231243

>  <r_i_glide_esite>  (195) 
-0.0772054

>  <r_i_glide_emodel>  (195) 
-24.5186

>  <r_i_glide_energy>  (195) 
-19.2557

>  <r_i_glide_einternal>  (195) 
0.00425926

>  <r_i_glide_intrahb_reward>  (195) 
-0

>  <i_i_glide_confnum>  (195) 
1

>  <i_i_glide_posenum>  (195) 
6

>  <r_i_glide_eff_state_penalty>  (195) 
0

>  <ligand_id>  (195) 
66

>  <original_smiles>  (195) 
Cc1ccc(C2C3C(=O)CCCC3=Nc3ncnn32)cc1

>  <smiles>  (195) 
[H]C1=C2C(=C([O-])C([H])([H])C1([H])[H])C([H])(c1c([H])c([H])c(C([H])([H])[H])c([H])c1[H])n1nc([H])nc1N2[H]

$$$$
66:1:2
     RDKit          3D

 36 39  0  0  1  0  0  0  0  0999 V2000
    4.7246   -1.8057    3.3690 C   0  0  0  0  0  0  0  0  0  0  0  0
    4.1896   -3.1392    2.9036 C   0  0  0  0  0  0  0  0  0  0  0  0
    4.0365   -4.1985    3.8188 C   0  0  0  0  0  0  0  0  0  0  0  0
    3.5338   -5.4369    3.3813 C   0  0  0  0  0  0  0  0  0  0  0  0
    3.1818   -5.6384    2.0278 C   0  0  0  0  0  0  0  0  0  0  0  0
    2.6310   -6.9905    1.5872 C   0  0  2  0  0  0  0  0  0  0  0  0
    1.3581   -7.3566    2.3448 C   0  0  0  0  0  0  0  0  0  0  0  0
    0.1098   -7.0142    1.8639 C   0  0  0  0  0  0  0  0  0  0  0  0
   -0.1959   -6.3340    0.8576 O   0  0  0  0  0  0  0  0  0  0  0  0
   -1.1585   -7.4602    2.6126 C   0  0  0  0  0  0  0  0  0  0  0  0
   -0.9403   -7.6965    4.1221 C   0  0  0  0  0  0  0  0  0  0  0  0
    0.4119   -8.3045    4.3953 C   0  0  0  0  0  0  0  0  0  0  0  0
    1.4492   -8.1838    3.5506 C   0  0  0  0  0  0  0  0  0  0  0  0
    2.6563   -8.8218    3.8030 N   0  0  0  0  0  0  0  0  0  0  0  0
    3.6753   -8.8644    2.8630 C   0  0  0  0  0  0  0  0  0  0  0  0
    4.7246   -9.6685    2.8546 N   0  0  0  0  0  0  0  0  0  0  0  0
    5.2639   -9.3067    1.6439 C   0  0  0  0  0  0  0  0  0  0  0  0
    4.6555   -8.3097    0.9942 N   0  0  0  0  0  0  0  0  0  0  0  0
    3.6119   -8.0364    1.8163 N   0  0  0  0  0  0  0  0  0  0  0  0
    3.3358   -4.5763    1.1073 C   0  0  0  0  0  0  0  0  0  0  0  0
    3.8380   -3.3304    1.5497 C   0  0  0  0  0  0  0  0  0  0  0  0
    4.9345   -1.8127    4.4372 H   0  0  0  0  0  0  0  0  0  0  0  0
    3.9992   -1.0166    3.1758 H   0  0  0  0  0  0  0  0  0  0  0  0
    5.6505   -1.5642    2.8506 H   0  0  0  0  0  0  0  0  0  0  0  0
    4.2952   -4.0775    4.8591 H   0  0  0  0  0  0  0  0  0  0  0  0
    3.4126   -6.2353    4.0970 H   0  0  0  0  0  0  0  0  0  0  0  0
    2.4062   -6.9671    0.5227 H   0  0  0  0  0  0  0  0  0  0  0  0
    2.7271   -9.4549    4.5805 H   0  0  0  0  0  0  0  0  0  0  0  0
   -1.5201   -8.3938    2.1690 H   0  0  0  0  0  0  0  0  0  0  0  0
   -1.9701   -6.7406    2.4894 H   0  0  0  0  0  0  0  0  0  0  0  0
   -1.0128   -6.7614    4.6753 H   0  0  0  0  0  0  0  0  0  0  0  0
   -1.7094   -8.3728    4.5042 H   0  0  0  0  0  0  0  0  0  0  0  0
    0.4983   -8.8699    5.3079 H   0  0  0  0  0  0  0  0  0  0  0  0
    6.1472   -9.7840    1.2377 H   0  0  0  0  0  0  0  0  0  0  0  0
    3.0600   -4.7106    0.0675 H   0  0  0  0  0  0  0  0  0  0  0  0
    3.9483   -2.5176    0.8473 H   0  0  0  0  0  0  0  0  0  0  0  0
  1  2  1  0
  1 22  1  0
  1 23  1  0
  1 24  1  0
  2 21  2  0
  2  3  1  0
  3  4  2  0
  3 25  1  0
  4  5  1  0
  4 26  1  0
  5  6  1  0
  5 20  2  0
  6 19  1  0
  6 27  1  6
  6  7  1  0
  7  8  2  0
  7 13  1  0
  8  9  1  0
  8 10  1  0
 10 11  1  0
 10 29  1  0
 10 30  1  0
 11 12  1  0
 11 31  1  0
 11 32  1  0
 12 33  1  0
 12 13  2  0
 13 14  1  0
 14 15  1  0
 14 28  1  0
 15 19  1  0
 15 16  2  0
 16 17  1  0
 17 18  2  0
 17 34  1  0
 18 19  1  0
 20 21  1  0
 20 35  1  0
 21 36  1  0
M  CHG  1   9  -1
M  END
>  <i_m_ct_stereo_status>  (196) 
1

>  <s_m_source_file>  (196) 
/var/tmp/pbs.5076255.sched01/tmp2djcgp0g/84b3bpyveh.sdf

>  <i_m_source_file_index>  (196) 
26

>  <i_lp_mmshare_version>  (196) 
48012

>  <i_f3d_flags>  (196) 
0

>  <s_epik_input>  (196) 
W0NIM11jMVtjSF1bY0hdYyhbY0hdW2NIXTEpW0NASF0ybihuW2NIXW4zKWMzTj1DKFtDQEhdMjQpW0NIMl1bQ0gyXVtDSDJdQzQ9Tw==

>  <s_epik_cmdline>  (196) 
J2VwaWtfcHl0aG9uJywgJy1waHQnLCAnMi4wJywgJy1waCcsICc3LjAnLCAnLXRuJywgJzgnLCAnLW1hJywgJzIwMCcsICctaW1hZScsICc8aW5maWxlLm1hZT4nLCAnLW9tYWUnLCAnPG91dGZpbGUubWFlPic=

>  <r_epik_Ionization_Penalty>  (196) 
0.572714

>  <r_epik_Ionization_Penalty_Charging>  (196) 
0.572714

>  <r_epik_Ionization_Penalty_Neutral>  (196) 
5.9558e-07

>  <r_epik_State_Penalty>  (196) 
0.584806

>  <r_epik_Charging_Adjusted_Penalty>  (196) 
1.15752

>  <i_epik_Tot_Q>  (196) 
-1

>  <i_epik_Tot_abs_Q>  (196) 
1

>  <s_epik_Chemistry_Notes>  (196) 
This compound has an imine and may undergo hydrolysis.

>  <s_lp_Force_Field>  (196) 
OPLS3e

>  <r_lp_Energy>  (196) 
30.7492

>  <b_lp_Chiralities_Consistent>  (196) 
1

>  <s_lp_Variant>  (196) 
66:0-2

>  <s_i_glide_gridfile>  (196) 
pfpi4k_grid

>  <i_i_glide_lignum>  (196) 
26

>  <i_i_glide_rotatable_bonds>  (196) 
1

>  <r_i_docking_score>  (196) 
-2.56949

>  <r_i_glide_ligand_efficiency>  (196) 
-0.122357

>  <r_i_glide_ligand_efficiency_sa>  (196) 
-0.337573

>  <r_i_glide_ligand_efficiency_ln>  (196) 
-0.635301

>  <r_i_glide_gscore>  (196) 
-2.56949

>  <r_i_glide_lipo>  (196) 
-0.0657355

>  <r_i_glide_hbond>  (196) 
-0.255406

>  <r_i_glide_metal>  (196) 
-0

>  <r_i_glide_rewards>  (196) 
-1.50466

>  <r_i_glide_evdw>  (196) 
-18.9752

>  <r_i_glide_ecoul>  (196) 
0.202576

>  <r_i_glide_erotb>  (196) 
0.231243

>  <r_i_glide_esite>  (196) 
-0.0565578

>  <r_i_glide_emodel>  (196) 
-23.8133

>  <r_i_glide_energy>  (196) 
-18.7726

>  <r_i_glide_einternal>  (196) 
0.184675

>  <r_i_glide_intrahb_reward>  (196) 
-0

>  <i_i_glide_confnum>  (196) 
4

>  <i_i_glide_posenum>  (196) 
19

>  <r_i_glide_eff_state_penalty>  (196) 
0

>  <ligand_id>  (196) 
66

>  <original_smiles>  (196) 
Cc1ccc(C2C3C(=O)CCCC3=Nc3ncnn32)cc1

>  <smiles>  (196) 
[H]C1=C2C(=C([O-])C([H])([H])C1([H])[H])C([H])(c1c([H])c([H])c(C([H])([H])[H])c([H])c1[H])n1nc([H])nc1N2[H]

$$$$
67:0:0
     RDKit          3D

 79 83  0  0  1  0  0  0  0  0999 V2000
    6.1741   -3.2170   -2.5765 C   0  0  0  0  0  0  0  0  0  0  0  0
    5.8185   -2.2850   -1.4658 C   0  0  2  0  0  0  0  0  0  0  0  0
    6.9250   -2.2275   -0.3866 C   0  0  0  0  0  0  0  0  0  0  0  0
    6.5432   -2.7758    0.9778 C   0  0  0  0  0  0  0  0  0  0  0  0
    5.1777   -2.2538    1.4548 C   0  0  2  0  0  0  0  0  0  0  0  0
    5.1842   -0.7025    1.4654 C   0  0  0  0  0  0  0  0  0  0  0  0
    4.9182   -2.6853    2.9187 C   0  0  0  0  0  0  0  0  0  0  0  0
    4.4803   -4.1409    3.1045 C   0  0  0  0  0  0  0  0  0  0  0  0
    3.2041   -4.5038    2.3106 C   0  0  1  0  0  0  0  0  0  0  0  0
    2.0654   -3.5634    2.8088 C   0  0  0  0  0  0  0  0  0  0  0  0
    3.5400   -4.2142    0.8128 C   0  0  2  0  0  0  0  0  0  0  0  0
    4.3914   -5.3359    0.1705 C   0  0  0  0  0  0  0  0  0  0  0  0
    4.5832   -6.6176    0.9399 C   0  0  0  0  0  0  0  0  0  0  0  0
    3.8825   -6.9707    2.0207 C   0  0  0  0  0  0  0  0  0  0  0  0
    4.1790   -8.2460    2.8413 C   0  0  2  0  0  0  0  0  0  0  0  0
    4.9442   -9.3228    2.0195 C   0  0  0  0  0  0  0  0  0  0  0  0
    5.2293  -10.6208    2.7863 C   0  0  1  0  0  0  0  0  0  0  0  0
    6.2672  -10.4276    3.7225 O   0  0  0  0  0  0  0  0  0  0  0  0
    3.9512  -11.1693    3.4337 C   0  0  1  0  0  0  0  0  0  0  0  0
    4.2580  -12.3756    4.0969 O   0  0  0  0  0  0  0  0  0  0  0  0
    3.1888  -10.1664    4.3428 C   0  0  0  0  0  0  0  0  0  0  0  0
    1.8295  -10.7917    4.7261 C   0  0  0  0  0  0  0  0  0  0  0  0
    3.9723   -9.8777    5.6600 C   0  0  0  0  0  0  0  0  0  0  0  0
    2.9171   -8.8532    3.5244 C   0  0  1  0  0  0  0  0  0  0  0  0
    2.1045   -7.7980    4.3108 C   0  0  0  0  0  0  0  0  0  0  0  0
    2.4957   -6.3385    4.0183 C   0  0  0  0  0  0  0  0  0  0  0  0
    2.7744   -6.0300    2.5187 C   0  0  1  0  0  0  0  0  0  0  0  0
    1.4835   -6.3732    1.7185 C   0  0  0  0  0  0  0  0  0  0  0  0
    4.0594   -2.7623    0.4949 C   0  0  2  0  0  0  0  0  0  0  0  0
    4.3652   -2.5660   -1.0288 C   0  0  1  0  0  0  0  0  0  0  0  0
    3.4930   -1.5301   -1.7005 C   0  0  0  0  0  0  0  0  0  0  0  0
    6.1496   -4.2466   -2.2270 H   0  0  0  0  0  0  0  0  0  0  0  0
    7.1715   -2.9901   -2.8743 H   0  0  0  0  0  0  0  0  0  0  0  0
    5.5070   -3.1455   -3.4213 H   0  0  0  0  0  0  0  0  0  0  0  0
    5.8544   -1.2990   -1.9190 H   0  0  0  0  0  0  0  0  0  0  0  0
    7.8379   -2.7272   -0.7158 H   0  0  0  0  0  0  0  0  0  0  0  0
    7.2204   -1.1879   -0.2391 H   0  0  0  0  0  0  0  0  0  0  0  0
    6.5849   -3.8591    0.9659 H   0  0  0  0  0  0  0  0  0  0  0  0
    7.3137   -2.5013    1.6668 H   0  0  0  0  0  0  0  0  0  0  0  0
    4.2555   -0.3072    1.8743 H   0  0  0  0  0  0  0  0  0  0  0  0
    5.2892   -0.2641    0.4715 H   0  0  0  0  0  0  0  0  0  0  0  0
    6.0072   -0.3293    2.0763 H   0  0  0  0  0  0  0  0  0  0  0  0
    5.8203   -2.5275    3.4960 H   0  0  0  0  0  0  0  0  0  0  0  0
    4.1778   -2.0224    3.3652 H   0  0  0  0  0  0  0  0  0  0  0  0
    5.3014   -4.7900    2.8220 H   0  0  0  0  0  0  0  0  0  0  0  0
    4.3310   -4.2888    4.1702 H   0  0  0  0  0  0  0  0  0  0  0  0
    1.1134   -3.7929    2.3465 H   0  0  0  0  0  0  0  0  0  0  0  0
    2.2440   -2.5124    2.5811 H   0  0  0  0  0  0  0  0  0  0  0  0
    1.9101   -3.6161    3.8906 H   0  0  0  0  0  0  0  0  0  0  0  0
    2.5901   -4.2480    0.2820 H   0  0  0  0  0  0  0  0  0  0  0  0
    3.8256   -5.6634   -0.7060 H   0  0  0  0  0  0  0  0  0  0  0  0
    5.3601   -5.0021   -0.1798 H   0  0  0  0  0  0  0  0  0  0  0  0
    5.3400   -7.2601    0.5183 H   0  0  0  0  0  0  0  0  0  0  0  0
    4.8434   -7.9073    3.6357 H   0  0  0  0  0  0  0  0  0  0  0  0
    4.3425   -9.5803    1.1434 H   0  0  0  0  0  0  0  0  0  0  0  0
    5.9044   -8.9434    1.6549 H   0  0  0  0  0  0  0  0  0  0  0  0
    5.5925  -11.3720    2.0846 H   0  0  0  0  0  0  0  0  0  0  0  0
    6.3591  -11.2426    4.2025 H   0  0  0  0  0  0  0  0  0  0  0  0
    3.2848  -11.4353    2.6158 H   0  0  0  0  0  0  0  0  0  0  0  0
    3.4411  -12.8167    4.2964 H   0  0  0  0  0  0  0  0  0  0  0  0
    1.2423  -10.1397    5.3772 H   0  0  0  0  0  0  0  0  0  0  0  0
    1.9504  -11.7329    5.2667 H   0  0  0  0  0  0  0  0  0  0  0  0
    1.2276  -10.9935    3.8374 H   0  0  0  0  0  0  0  0  0  0  0  0
    3.3556   -9.4045    6.4259 H   0  0  0  0  0  0  0  0  0  0  0  0
    4.8313   -9.2329    5.4966 H   0  0  0  0  0  0  0  0  0  0  0  0
    4.3345  -10.7997    6.1143 H   0  0  0  0  0  0  0  0  0  0  0  0
    2.2766   -9.1616    2.6933 H   0  0  0  0  0  0  0  0  0  0  0  0
    1.0502   -7.9445    4.0802 H   0  0  0  0  0  0  0  0  0  0  0  0
    2.1813   -7.9528    5.3872 H   0  0  0  0  0  0  0  0  0  0  0  0
    1.6922   -5.7154    4.4019 H   0  0  0  0  0  0  0  0  0  0  0  0
    3.3773   -6.1121    4.6165 H   0  0  0  0  0  0  0  0  0  0  0  0
    0.6046   -5.8716    2.1164 H   0  0  0  0  0  0  0  0  0  0  0  0
    1.2509   -7.4341    1.7420 H   0  0  0  0  0  0  0  0  0  0  0  0
    1.5638   -6.1280    0.6638 H   0  0  0  0  0  0  0  0  0  0  0  0
    3.2004   -2.1180    0.6865 H   0  0  0  0  0  0  0  0  0  0  0  0
    4.0458   -3.4754   -1.5333 H   0  0  0  0  0  0  0  0  0  0  0  0
    3.6020   -0.5920   -1.1914 H   0  0  0  0  0  0  0  0  0  0  0  0
    2.4808   -1.8837   -1.6205 H   0  0  0  0  0  0  0  0  0  0  0  0
    3.7154   -1.3752   -2.7532 H   0  0  0  0  0  0  0  0  0  0  0  0
  1  2  1  0
  1 32  1  0
  1 33  1  0
  1 34  1  0
  2 30  1  0
  2  3  1  0
  2 35  1  6
  3  4  1  0
  3 36  1  0
  3 37  1  0
  4  5  1  0
  4 38  1  0
  4 39  1  0
  5 29  1  0
  5  6  1  1
  5  7  1  0
  6 40  1  0
  6 41  1  0
  6 42  1  0
  7  8  1  0
  7 43  1  0
  7 44  1  0
  8  9  1  0
  8 45  1  0
  8 46  1  0
  9 27  1  0
  9 10  1  1
  9 11  1  0
 10 47  1  0
 10 48  1  0
 10 49  1  0
 11 12  1  0
 11 29  1  0
 11 50  1  6
 12 13  1  0
 12 51  1  0
 12 52  1  0
 13 14  2  0
 13 53  1  0
 14 27  1  0
 14 15  1  0
 15 24  1  0
 15 16  1  0
 15 54  1  1
 16 17  1  0
 16 55  1  0
 16 56  1  0
 17 18  1  0
 17 19  1  0
 17 57  1  6
 18 58  1  0
 19 20  1  0
 19 21  1  0
 19 59  1  6
 20 60  1  0
 21 22  1  0
 21 23  1  0
 21 24  1  0
 22 61  1  0
 22 62  1  0
 22 63  1  0
 23 64  1  0
 23 65  1  0
 23 66  1  0
 24 25  1  0
 24 67  1  6
 25 26  1  0
 25 68  1  0
 25 69  1  0
 26 27  1  0
 26 70  1  0
 26 71  1  0
 27 28  1  6
 28 72  1  0
 28 73  1  0
 28 74  1  0
 29 30  1  0
 29 75  1  1
 30 31  1  0
 30 76  1  6
 31 77  1  0
 31 78  1  0
 31 79  1  0
M  END
>  <i_m_ct_stereo_status>  (197) 
1

>  <s_m_source_file>  (197) 
/var/tmp/pbs.5076255.sched01/tmp2djcgp0g/84b3bpyveh.sdf

>  <i_m_source_file_index>  (197) 
27

>  <i_lp_mmshare_version>  (197) 
48012

>  <i_f3d_flags>  (197) 
0

>  <s_epik_input>  (197) 
W0NIMl0xW0NIMl1bQ0BASF0oW0NIM10pW0NASF0oW0NIM10pW0NASF0oW0NAXTEyW0NIM10pW0NAQEhdM1tDQF0oW0NIM10pKFtDSDJdW0NIMl0yKVtDQEBdNChbQ0gzXSlDKD1bQ0hdW0NIMl0zKVtDQEhdNVtDQEhdKFtDSDJdW0NIMl00KUMoW0NIM10pKFtDSDNdKVtDQEhdKFtPSF0pW0NAQEhdKFtDSDJdNSlbT0hd

>  <s_epik_cmdline>  (197) 
J2VwaWtfcHl0aG9uJywgJy1waHQnLCAnMi4wJywgJy1waCcsICc3LjAnLCAnLXRuJywgJzgnLCAnLW1hJywgJzIwMCcsICctaW1hZScsICc8aW5maWxlLm1hZT4nLCAnLW9tYWUnLCAnPG91dGZpbGUubWFlPic=

>  <r_lp_tautomer_probability>  (197) 
1

>  <r_epik_Ionization_Penalty>  (197) 
1.52751e-06

>  <r_epik_Ionization_Penalty_Charging>  (197) 
0

>  <r_epik_Ionization_Penalty_Neutral>  (197) 
1.52751e-06

>  <r_epik_State_Penalty>  (197) 
-0

>  <r_epik_Charging_Adjusted_Penalty>  (197) 
0

>  <i_epik_Tot_Q>  (197) 
0

>  <i_epik_Tot_abs_Q>  (197) 
0

>  <s_lp_Force_Field>  (197) 
OPLS3e

>  <r_lp_Energy>  (197) 
87.3701

>  <b_lp_Chiralities_Consistent>  (197) 
1

>  <s_lp_Variant>  (197) 
67:0-1

>  <s_i_glide_gridfile>  (197) 
pfpi4k_grid

>  <i_i_glide_lignum>  (197) 
27

>  <i_i_glide_rotatable_bonds>  (197) 
2

>  <r_i_docking_score>  (197) 
-2.85977

>  <r_i_glide_ligand_efficiency>  (197) 
-0.0922508

>  <r_i_glide_ligand_efficiency_sa>  (197) 
-0.289795

>  <r_i_glide_ligand_efficiency_ln>  (197) 
-0.644967

>  <r_i_glide_gscore>  (197) 
-2.85977

>  <r_i_glide_lipo>  (197) 
-0.730355

>  <r_i_glide_hbond>  (197) 
0

>  <r_i_glide_metal>  (197) 
-0

>  <r_i_glide_rewards>  (197) 
-0.486203

>  <r_i_glide_evdw>  (197) 
-26.1506

>  <r_i_glide_ecoul>  (197) 
-2.23789

>  <r_i_glide_erotb>  (197) 
0

>  <r_i_glide_esite>  (197) 
0

>  <r_i_glide_emodel>  (197) 
-32.5231

>  <r_i_glide_energy>  (197) 
-28.3885

>  <r_i_glide_einternal>  (197) 
0.704645

>  <r_i_glide_intrahb_reward>  (197) 
-0

>  <i_i_glide_confnum>  (197) 
2

>  <i_i_glide_posenum>  (197) 
18

>  <r_i_glide_eff_state_penalty>  (197) 
0

>  <ligand_id>  (197) 
67

>  <original_smiles>  (197) 
CC1CCC2(C)CCC3(C)C(CC=C4C5CC(O)C(O)C(C)(C)C5CCC43C)C2C1C

>  <smiles>  (197) 
[H]OC1([H])C([H])([H])C2([H])C3=C([H])C([H])([H])C4([H])C5([H])C([H])(C([H])([H])[H])C([H])(C([H])([H])[H])C([H])([H])C([H])([H])C5(C([H])([H])[H])C([H])([H])C([H])([H])C4(C([H])([H])[H])C3(C([H])([H])[H])C([H])([H])C([H])([H])C2([H])C(C([H])([H])[H])(C([H])([H])[H])C1([H])O[H]

$$$$
67:0:1
     RDKit          3D

 79 83  0  0  1  0  0  0  0  0999 V2000
    4.1701   -0.9180    0.3754 C   0  0  0  0  0  0  0  0  0  0  0  0
    3.8621   -0.5373    1.8309 C   0  0  2  0  0  0  0  0  0  0  0  0
    5.1002   -0.7529    2.7418 C   0  0  0  0  0  0  0  0  0  0  0  0
    4.9683   -1.8592    3.7928 C   0  0  0  0  0  0  0  0  0  0  0  0
    3.6458   -1.7588    4.5702 C   0  0  2  0  0  0  0  0  0  0  0  0
    3.5435   -0.3538    5.2215 C   0  0  0  0  0  0  0  0  0  0  0  0
    3.6450   -2.7647    5.7433 C   0  0  0  0  0  0  0  0  0  0  0  0
    3.3393   -4.2179    5.3605 C   0  0  0  0  0  0  0  0  0  0  0  0
    1.9821   -4.3970    4.6241 C   0  0  1  0  0  0  0  0  0  0  0  0
    0.8409   -3.8733    5.5526 C   0  0  0  0  0  0  0  0  0  0  0  0
    2.0552   -3.5010    3.3365 C   0  0  2  0  0  0  0  0  0  0  0  0
    2.8323   -4.1563    2.1557 C   0  0  0  0  0  0  0  0  0  0  0  0
    3.2607   -5.6001    2.3362 C   0  0  0  0  0  0  0  0  0  0  0  0
    2.7927   -6.4393    3.2883 C   0  0  0  0  0  0  0  0  0  0  0  0
    3.3292   -7.8788    3.4874 C   0  0  2  0  0  0  0  0  0  0  0  0
    4.0262   -8.4366    2.2194 C   0  0  0  0  0  0  0  0  0  0  0  0
    4.5282   -9.8785    2.3561 C   0  0  1  0  0  0  0  0  0  0  0  0
    5.6901   -9.9327    3.1540 O   0  0  0  0  0  0  0  0  0  0  0  0
    3.4160  -10.8014    2.8739 C   0  0  1  0  0  0  0  0  0  0  0  0
    3.8975  -12.1264    2.8816 O   0  0  0  0  0  0  0  0  0  0  0  0
    2.7225  -10.3481    4.1877 C   0  0  0  0  0  0  0  0  0  0  0  0
    1.4797  -11.2458    4.4093 C   0  0  0  0  0  0  0  0  0  0  0  0
    3.6755  -10.5131    5.3976 C   0  0  0  0  0  0  0  0  0  0  0  0
    2.2362   -8.8689    3.9935 C   0  0  1  0  0  0  0  0  0  0  0  0
    1.4751   -8.3289    5.2298 C   0  0  0  0  0  0  0  0  0  0  0  0
    1.6967   -6.8355    5.5173 C   0  0  0  0  0  0  0  0  0  0  0  0
    1.7167   -5.9295    4.2542 C   0  0  1  0  0  0  0  0  0  0  0  0
    0.3483   -6.1077    3.5417 C   0  0  0  0  0  0  0  0  0  0  0  0
    2.4417   -1.9936    3.6047 C   0  0  2  0  0  0  0  0  0  0  0  0
    2.4829   -1.1157    2.3042 C   0  0  1  0  0  0  0  0  0  0  0  0
    1.3962   -0.0216    2.3124 C   0  0  0  0  0  0  0  0  0  0  0  0
    4.3482   -1.9882    0.2741 H   0  0  0  0  0  0  0  0  0  0  0  0
    5.0463   -0.3870    0.0032 H   0  0  0  0  0  0  0  0  0  0  0  0
    3.3364   -0.6622   -0.2771 H   0  0  0  0  0  0  0  0  0  0  0  0
    3.7477    0.5451    1.8074 H   0  0  0  0  0  0  0  0  0  0  0  0
    5.9840   -0.9524    2.1371 H   0  0  0  0  0  0  0  0  0  0  0  0
    5.3277    0.1882    3.2547 H   0  0  0  0  0  0  0  0  0  0  0  0
    5.0775   -2.8294    3.3216 H   0  0  0  0  0  0  0  0  0  0  0  0
    5.8022   -1.7858    4.4879 H   0  0  0  0  0  0  0  0  0  0  0  0
    2.6634   -0.2790    5.8596 H   0  0  0  0  0  0  0  0  0  0  0  0
    3.4584    0.4496    4.4915 H   0  0  0  0  0  0  0  0  0  0  0  0
    4.4180   -0.1429    5.8404 H   0  0  0  0  0  0  0  0  0  0  0  0
    4.6158   -2.7367    6.2366 H   0  0  0  0  0  0  0  0  0  0  0  0
    2.9427   -2.4430    6.5114 H   0  0  0  0  0  0  0  0  0  0  0  0
    4.1581   -4.5890    4.7503 H   0  0  0  0  0  0  0  0  0  0  0  0
    3.3692   -4.7960    6.2807 H   0  0  0  0  0  0  0  0  0  0  0  0
   -0.1475   -3.9687    5.1020 H   0  0  0  0  0  0  0  0  0  0  0  0
    0.9347   -2.8168    5.8004 H   0  0  0  0  0  0  0  0  0  0  0  0
    0.8271   -4.3877    6.5138 H   0  0  0  0  0  0  0  0  0  0  0  0
    1.0333   -3.4246    2.9716 H   0  0  0  0  0  0  0  0  0  0  0  0
    2.2280   -4.1096    1.2508 H   0  0  0  0  0  0  0  0  0  0  0  0
    3.7339   -3.5990    1.9241 H   0  0  0  0  0  0  0  0  0  0  0  0
    4.0096   -5.9146    1.6289 H   0  0  0  0  0  0  0  0  0  0  0  0
    4.0845   -7.7916    4.2666 H   0  0  0  0  0  0  0  0  0  0  0  0
    3.3083   -8.4098    1.3972 H   0  0  0  0  0  0  0  0  0  0  0  0
    4.8779   -7.8237    1.9220 H   0  0  0  0  0  0  0  0  0  0  0  0
    4.8313  -10.2344    1.3696 H   0  0  0  0  0  0  0  0  0  0  0  0
    5.9251  -10.8512    3.2266 H   0  0  0  0  0  0  0  0  0  0  0  0
    2.6423  -10.8035    2.1113 H   0  0  0  0  0  0  0  0  0  0  0  0
    3.9278  -12.3708    1.9354 H   0  0  0  0  0  0  0  0  0  0  0  0
    0.9442  -10.9939    5.3271 H   0  0  0  0  0  0  0  0  0  0  0  0
    1.7500  -12.2998    4.4855 H   0  0  0  0  0  0  0  0  0  0  0  0
    0.7708  -11.1500    3.5851 H   0  0  0  0  0  0  0  0  0  0  0  0
    3.1557  -10.4661    6.3559 H   0  0  0  0  0  0  0  0  0  0  0  0
    4.4499   -9.7473    5.4109 H   0  0  0  0  0  0  0  0  0  0  0  0
    4.1799  -11.4808    5.3785 H   0  0  0  0  0  0  0  0  0  0  0  0
    1.5046   -8.9054    3.1844 H   0  0  0  0  0  0  0  0  0  0  0  0
    0.4135   -8.5153    5.0832 H   0  0  0  0  0  0  0  0  0  0  0  0
    1.7217   -8.8799    6.1370 H   0  0  0  0  0  0  0  0  0  0  0  0
    0.9233   -6.5196    6.2172 H   0  0  0  0  0  0  0  0  0  0  0  0
    2.6425   -6.7562    6.0505 H   0  0  0  0  0  0  0  0  0  0  0  0
   -0.4945   -5.9160    4.2032 H   0  0  0  0  0  0  0  0  0  0  0  0
    0.2084   -7.1150    3.1559 H   0  0  0  0  0  0  0  0  0  0  0  0
    0.2572   -5.4581    2.6756 H   0  0  0  0  0  0  0  0  0  0  0  0
    1.5915   -1.6075    4.1572 H   0  0  0  0  0  0  0  0  0  0  0  0
    2.1463   -1.7575    1.4920 H   0  0  0  0  0  0  0  0  0  0  0  0
    1.5553    0.7231    3.0921 H   0  0  0  0  0  0  0  0  0  0  0  0
    0.4120   -0.4601    2.4648 H   0  0  0  0  0  0  0  0  0  0  0  0
    1.3561    0.5005    1.3553 H   0  0  0  0  0  0  0  0  0  0  0  0
  1  2  1  0
  1 32  1  0
  1 33  1  0
  1 34  1  0
  2 30  1  0
  2  3  1  0
  2 35  1  6
  3  4  1  0
  3 36  1  0
  3 37  1  0
  4  5  1  0
  4 38  1  0
  4 39  1  0
  5 29  1  0
  5  6  1  1
  5  7  1  0
  6 40  1  0
  6 41  1  0
  6 42  1  0
  7  8  1  0
  7 43  1  0
  7 44  1  0
  8  9  1  0
  8 45  1  0
  8 46  1  0
  9 27  1  0
  9 10  1  1
  9 11  1  0
 10 47  1  0
 10 48  1  0
 10 49  1  0
 11 12  1  0
 11 29  1  0
 11 50  1  6
 12 13  1  0
 12 51  1  0
 12 52  1  0
 13 14  2  0
 13 53  1  0
 14 27  1  0
 14 15  1  0
 15 24  1  0
 15 16  1  0
 15 54  1  1
 16 17  1  0
 16 55  1  0
 16 56  1  0
 17 18  1  0
 17 19  1  0
 17 57  1  6
 18 58  1  0
 19 20  1  0
 19 21  1  0
 19 59  1  6
 20 60  1  0
 21 22  1  0
 21 23  1  0
 21 24  1  0
 22 61  1  0
 22 62  1  0
 22 63  1  0
 23 64  1  0
 23 65  1  0
 23 66  1  0
 24 25  1  0
 24 67  1  6
 25 26  1  0
 25 68  1  0
 25 69  1  0
 26 27  1  0
 26 70  1  0
 26 71  1  0
 27 28  1  6
 28 72  1  0
 28 73  1  0
 28 74  1  0
 29 30  1  0
 29 75  1  1
 30 31  1  0
 30 76  1  6
 31 77  1  0
 31 78  1  0
 31 79  1  0
M  END
>  <i_m_ct_stereo_status>  (198) 
1

>  <s_m_source_file>  (198) 
/var/tmp/pbs.5076255.sched01/tmp2djcgp0g/84b3bpyveh.sdf

>  <i_m_source_file_index>  (198) 
27

>  <i_lp_mmshare_version>  (198) 
48012

>  <i_f3d_flags>  (198) 
0

>  <s_epik_input>  (198) 
W0NIMl0xW0NIMl1bQ0BASF0oW0NIM10pW0NASF0oW0NIM10pW0NASF0oW0NAXTEyW0NIM10pW0NAQEhdM1tDQF0oW0NIM10pKFtDSDJdW0NIMl0yKVtDQEBdNChbQ0gzXSlDKD1bQ0hdW0NIMl0zKVtDQEhdNVtDQEhdKFtDSDJdW0NIMl00KUMoW0NIM10pKFtDSDNdKVtDQEhdKFtPSF0pW0NAQEhdKFtDSDJdNSlbT0hd

>  <s_epik_cmdline>  (198) 
J2VwaWtfcHl0aG9uJywgJy1waHQnLCAnMi4wJywgJy1waCcsICc3LjAnLCAnLXRuJywgJzgnLCAnLW1hJywgJzIwMCcsICctaW1hZScsICc8aW5maWxlLm1hZT4nLCAnLW9tYWUnLCAnPG91dGZpbGUubWFlPic=

>  <r_lp_tautomer_probability>  (198) 
1

>  <r_epik_Ionization_Penalty>  (198) 
1.52751e-06

>  <r_epik_Ionization_Penalty_Charging>  (198) 
0

>  <r_epik_Ionization_Penalty_Neutral>  (198) 
1.52751e-06

>  <r_epik_State_Penalty>  (198) 
-0

>  <r_epik_Charging_Adjusted_Penalty>  (198) 
0

>  <i_epik_Tot_Q>  (198) 
0

>  <i_epik_Tot_abs_Q>  (198) 
0

>  <s_lp_Force_Field>  (198) 
OPLS3e

>  <r_lp_Energy>  (198) 
87.3701

>  <b_lp_Chiralities_Consistent>  (198) 
1

>  <s_lp_Variant>  (198) 
67:0-1

>  <s_i_glide_gridfile>  (198) 
pfpi4k_grid

>  <i_i_glide_lignum>  (198) 
27

>  <i_i_glide_rotatable_bonds>  (198) 
2

>  <r_i_docking_score>  (198) 
-2.8277

>  <r_i_glide_ligand_efficiency>  (198) 
-0.091216

>  <r_i_glide_ligand_efficiency_sa>  (198) 
-0.286544

>  <r_i_glide_ligand_efficiency_ln>  (198) 
-0.637732

>  <r_i_glide_gscore>  (198) 
-2.8277

>  <r_i_glide_lipo>  (198) 
-0.276869

>  <r_i_glide_hbond>  (198) 
0

>  <r_i_glide_metal>  (198) 
-0

>  <r_i_glide_rewards>  (198) 
-0.486203

>  <r_i_glide_evdw>  (198) 
-25.3203

>  <r_i_glide_ecoul>  (198) 
-5.32408

>  <r_i_glide_erotb>  (198) 
0

>  <r_i_glide_esite>  (198) 
0

>  <r_i_glide_emodel>  (198) 
-35.66

>  <r_i_glide_energy>  (198) 
-30.6443

>  <r_i_glide_einternal>  (198) 
0.807836

>  <r_i_glide_intrahb_reward>  (198) 
-0

>  <i_i_glide_confnum>  (198) 
2

>  <i_i_glide_posenum>  (198) 
1

>  <r_i_glide_eff_state_penalty>  (198) 
0

>  <ligand_id>  (198) 
67

>  <original_smiles>  (198) 
CC1CCC2(C)CCC3(C)C(CC=C4C5CC(O)C(O)C(C)(C)C5CCC43C)C2C1C

>  <smiles>  (198) 
[H]OC1([H])C([H])([H])C2([H])C3=C([H])C([H])([H])C4([H])C5([H])C([H])(C([H])([H])[H])C([H])(C([H])([H])[H])C([H])([H])C([H])([H])C5(C([H])([H])[H])C([H])([H])C([H])([H])C4(C([H])([H])[H])C3(C([H])([H])[H])C([H])([H])C([H])([H])C2([H])C(C([H])([H])[H])(C([H])([H])[H])C1([H])O[H]

$$$$
67:0:2
     RDKit          3D

 79 83  0  0  1  0  0  0  0  0999 V2000
    6.7434   -2.9126   -1.9156 C   0  0  0  0  0  0  0  0  0  0  0  0
    5.8132   -2.1455   -0.9633 C   0  0  2  0  0  0  0  0  0  0  0  0
    6.5750   -1.6871    0.3047 C   0  0  0  0  0  0  0  0  0  0  0  0
    6.1331   -2.3319    1.6174 C   0  0  0  0  0  0  0  0  0  0  0  0
    4.6050   -2.3332    1.7808 C   0  0  2  0  0  0  0  0  0  0  0  0
    4.0792   -0.8765    1.6779 C   0  0  0  0  0  0  0  0  0  0  0  0
    4.2294   -2.8168    3.2014 C   0  0  0  0  0  0  0  0  0  0  0  0
    4.2787   -4.3357    3.4081 C   0  0  0  0  0  0  0  0  0  0  0  0
    3.3841   -5.1339    2.4196 C   0  0  1  0  0  0  0  0  0  0  0  0
    1.9114   -4.6565    2.5932 C   0  0  0  0  0  0  0  0  0  0  0  0
    3.8893   -4.7698    0.9756 C   0  0  2  0  0  0  0  0  0  0  0  0
    5.1594   -5.5591    0.5325 C   0  0  0  0  0  0  0  0  0  0  0  0
    5.6258   -6.6670    1.4580 C   0  0  0  0  0  0  0  0  0  0  0  0
    4.9021   -7.2067    2.4585 C   0  0  0  0  0  0  0  0  0  0  0  0
    5.4618   -8.2775    3.4303 C   0  0  2  0  0  0  0  0  0  0  0  0
    6.6858   -9.0403    2.8477 C   0  0  0  0  0  0  0  0  0  0  0  0
    7.2406  -10.1466    3.7588 C   0  0  1  0  0  0  0  0  0  0  0  0
    7.9507   -9.5636    4.8371 O   0  0  0  0  0  0  0  0  0  0  0  0
    6.1172  -11.1022    4.2047 C   0  0  1  0  0  0  0  0  0  0  0  0
    6.6590  -12.1477    4.9902 O   0  0  0  0  0  0  0  0  0  0  0  0
    4.8960  -10.4127    4.8775 C   0  0  0  0  0  0  0  0  0  0  0  0
    3.7793  -11.4752    5.0446 C   0  0  0  0  0  0  0  0  0  0  0  0
    5.2659   -9.8584    6.2836 C   0  0  0  0  0  0  0  0  0  0  0  0
    4.3733   -9.2832    3.9193 C   0  0  1  0  0  0  0  0  0  0  0  0
    3.1031   -8.5764    4.4574 C   0  0  0  0  0  0  0  0  0  0  0  0
    3.0223   -7.0771    4.1321 C   0  0  0  0  0  0  0  0  0  0  0  0
    3.4673   -6.7060    2.6890 C   0  0  1  0  0  0  0  0  0  0  0  0
    2.5534   -7.4807    1.6997 C   0  0  0  0  0  0  0  0  0  0  0  0
    3.9567   -3.2210    0.6727 C   0  0  2  0  0  0  0  0  0  0  0  0
    4.4496   -2.8982   -0.7844 C   0  0  1  0  0  0  0  0  0  0  0  0
    3.3541   -2.2190   -1.6275 C   0  0  0  0  0  0  0  0  0  0  0  0
    7.0642   -3.8457   -1.4667 H   0  0  0  0  0  0  0  0  0  0  0  0
    7.6460   -2.3491   -2.1559 H   0  0  0  0  0  0  0  0  0  0  0  0
    6.2463   -3.1392   -2.8593 H   0  0  0  0  0  0  0  0  0  0  0  0
    5.5933   -1.2192   -1.4919 H   0  0  0  0  0  0  0  0  0  0  0  0
    7.6488   -1.8386    0.1910 H   0  0  0  0  0  0  0  0  0  0  0  0
    6.4636   -0.6058    0.4030 H   0  0  0  0  0  0  0  0  0  0  0  0
    6.5401   -3.3381    1.6891 H   0  0  0  0  0  0  0  0  0  0  0  0
    6.5978   -1.7818    2.4389 H   0  0  0  0  0  0  0  0  0  0  0  0
    3.0089   -0.8276    1.8805 H   0  0  0  0  0  0  0  0  0  0  0  0
    4.2240   -0.4412    0.6885 H   0  0  0  0  0  0  0  0  0  0  0  0
    4.5850   -0.2289    2.3971 H   0  0  0  0  0  0  0  0  0  0  0  0
    4.8916   -2.3484    3.9294 H   0  0  0  0  0  0  0  0  0  0  0  0
    3.2354   -2.4571    3.4650 H   0  0  0  0  0  0  0  0  0  0  0  0
    5.3141   -4.6627    3.3396 H   0  0  0  0  0  0  0  0  0  0  0  0
    3.9801   -4.5194    4.4368 H   0  0  0  0  0  0  0  0  0  0  0  0
    1.2303   -5.1864    1.9316 H   0  0  0  0  0  0  0  0  0  0  0  0
    1.7741   -3.6023    2.3622 H   0  0  0  0  0  0  0  0  0  0  0  0
    1.5535   -4.7774    3.6158 H   0  0  0  0  0  0  0  0  0  0  0  0
    3.1132   -5.1133    0.2911 H   0  0  0  0  0  0  0  0  0  0  0  0
    4.9837   -6.0106   -0.4466 H   0  0  0  0  0  0  0  0  0  0  0  0
    6.0074   -4.8953    0.3982 H   0  0  0  0  0  0  0  0  0  0  0  0
    6.6357   -6.9938    1.2615 H   0  0  0  0  0  0  0  0  0  0  0  0
    5.7990   -7.7140    4.3009 H   0  0  0  0  0  0  0  0  0  0  0  0
    6.3791   -9.5013    1.9050 H   0  0  0  0  0  0  0  0  0  0  0  0
    7.5078   -8.3578    2.6213 H   0  0  0  0  0  0  0  0  0  0  0  0
    7.9741  -10.7260    3.1989 H   0  0  0  0  0  0  0  0  0  0  0  0
    7.3281   -9.1420    5.4070 H   0  0  0  0  0  0  0  0  0  0  0  0
    5.7515  -11.5865    3.2981 H   0  0  0  0  0  0  0  0  0  0  0  0
    5.9734  -12.7767    5.1559 H   0  0  0  0  0  0  0  0  0  0  0  0
    2.8873  -11.0642    5.5233 H   0  0  0  0  0  0  0  0  0  0  0  0
    4.0971  -12.3169    5.6636 H   0  0  0  0  0  0  0  0  0  0  0  0
    3.4723  -11.8760    4.0752 H   0  0  0  0  0  0  0  0  0  0  0  0
    4.3868   -9.6279    6.8851 H   0  0  0  0  0  0  0  0  0  0  0  0
    5.8571   -8.9470    6.2322 H   0  0  0  0  0  0  0  0  0  0  0  0
    5.8334  -10.5854    6.8646 H   0  0  0  0  0  0  0  0  0  0  0  0
    4.0562   -9.7997    3.0121 H   0  0  0  0  0  0  0  0  0  0  0  0
    2.2255   -9.0880    4.0566 H   0  0  0  0  0  0  0  0  0  0  0  0
    3.0125   -8.6729    5.5379 H   0  0  0  0  0  0  0  0  0  0  0  0
    1.9958   -6.7639    4.3144 H   0  0  0  0  0  0  0  0  0  0  0  0
    3.6392   -6.5533    4.8605 H   0  0  0  0  0  0  0  0  0  0  0  0
    1.4914   -7.3201    1.8837 H   0  0  0  0  0  0  0  0  0  0  0  0
    2.7038   -8.5573    1.7477 H   0  0  0  0  0  0  0  0  0  0  0  0
    2.7655   -7.1956    0.6756 H   0  0  0  0  0  0  0  0  0  0  0  0
    2.9113   -2.9157    0.6768 H   0  0  0  0  0  0  0  0  0  0  0  0
    4.5583   -3.8566   -1.2908 H   0  0  0  0  0  0  0  0  0  0  0  0
    3.0817   -1.2368   -1.2403 H   0  0  0  0  0  0  0  0  0  0  0  0
    2.4473   -2.8245   -1.6361 H   0  0  0  0  0  0  0  0  0  0  0  0
    3.6615   -2.0941   -2.6651 H   0  0  0  0  0  0  0  0  0  0  0  0
  1  2  1  0
  1 32  1  0
  1 33  1  0
  1 34  1  0
  2 30  1  0
  2  3  1  0
  2 35  1  6
  3  4  1  0
  3 36  1  0
  3 37  1  0
  4  5  1  0
  4 38  1  0
  4 39  1  0
  5 29  1  0
  5  6  1  6
  5  7  1  0
  6 40  1  0
  6 41  1  0
  6 42  1  0
  7  8  1  0
  7 43  1  0
  7 44  1  0
  8  9  1  0
  8 45  1  0
  8 46  1  0
  9 27  1  0
  9 10  1  6
  9 11  1  0
 10 47  1  0
 10 48  1  0
 10 49  1  0
 11 12  1  0
 11 29  1  0
 11 50  1  6
 12 13  1  0
 12 51  1  0
 12 52  1  0
 13 14  2  0
 13 53  1  0
 14 27  1  0
 14 15  1  0
 15 24  1  0
 15 16  1  0
 15 54  1  1
 16 17  1  0
 16 55  1  0
 16 56  1  0
 17 18  1  0
 17 19  1  0
 17 57  1  6
 18 58  1  0
 19 20  1  0
 19 21  1  0
 19 59  1  6
 20 60  1  0
 21 22  1  0
 21 23  1  0
 21 24  1  0
 22 61  1  0
 22 62  1  0
 22 63  1  0
 23 64  1  0
 23 65  1  0
 23 66  1  0
 24 25  1  0
 24 67  1  6
 25 26  1  0
 25 68  1  0
 25 69  1  0
 26 27  1  0
 26 70  1  0
 26 71  1  0
 27 28  1  6
 28 72  1  0
 28 73  1  0
 28 74  1  0
 29 30  1  0
 29 75  1  6
 30 31  1  0
 30 76  1  6
 31 77  1  0
 31 78  1  0
 31 79  1  0
M  END
>  <i_m_ct_stereo_status>  (199) 
1

>  <s_m_source_file>  (199) 
/var/tmp/pbs.5076255.sched01/tmp2djcgp0g/84b3bpyveh.sdf

>  <i_m_source_file_index>  (199) 
27

>  <i_lp_mmshare_version>  (199) 
48012

>  <i_f3d_flags>  (199) 
0

>  <s_epik_input>  (199) 
W0NIMl0xW0NIMl1bQ0BASF0oW0NIM10pW0NASF0oW0NIM10pW0NASF0oW0NAXTEyW0NIM10pW0NAQEhdM1tDQF0oW0NIM10pKFtDSDJdW0NIMl0yKVtDQEBdNChbQ0gzXSlDKD1bQ0hdW0NIMl0zKVtDQEhdNVtDQEhdKFtDSDJdW0NIMl00KUMoW0NIM10pKFtDSDNdKVtDQEhdKFtPSF0pW0NAQEhdKFtDSDJdNSlbT0hd

>  <s_epik_cmdline>  (199) 
J2VwaWtfcHl0aG9uJywgJy1waHQnLCAnMi4wJywgJy1waCcsICc3LjAnLCAnLXRuJywgJzgnLCAnLW1hJywgJzIwMCcsICctaW1hZScsICc8aW5maWxlLm1hZT4nLCAnLW9tYWUnLCAnPG91dGZpbGUubWFlPic=

>  <r_lp_tautomer_probability>  (199) 
1

>  <r_epik_Ionization_Penalty>  (199) 
1.52751e-06

>  <r_epik_Ionization_Penalty_Charging>  (199) 
0

>  <r_epik_Ionization_Penalty_Neutral>  (199) 
1.52751e-06

>  <r_epik_State_Penalty>  (199) 
-0

>  <r_epik_Charging_Adjusted_Penalty>  (199) 
0

>  <i_epik_Tot_Q>  (199) 
0

>  <i_epik_Tot_abs_Q>  (199) 
0

>  <s_lp_Force_Field>  (199) 
OPLS3e

>  <r_lp_Energy>  (199) 
87.3701

>  <b_lp_Chiralities_Consistent>  (199) 
1

>  <s_lp_Variant>  (199) 
67:0-1

>  <s_i_glide_gridfile>  (199) 
pfpi4k_grid

>  <i_i_glide_lignum>  (199) 
27

>  <i_i_glide_rotatable_bonds>  (199) 
2

>  <r_i_docking_score>  (199) 
-2.44673

>  <r_i_glide_ligand_efficiency>  (199) 
-0.0789267

>  <r_i_glide_ligand_efficiency_sa>  (199) 
-0.247939

>  <r_i_glide_ligand_efficiency_ln>  (199) 
-0.551812

>  <r_i_glide_gscore>  (199) 
-2.44673

>  <r_i_glide_lipo>  (199) 
-0.42801

>  <r_i_glide_hbond>  (199) 
0

>  <r_i_glide_metal>  (199) 
-0

>  <r_i_glide_rewards>  (199) 
-0.486203

>  <r_i_glide_evdw>  (199) 
-27.5111

>  <r_i_glide_ecoul>  (199) 
-1.04641

>  <r_i_glide_erotb>  (199) 
0

>  <r_i_glide_esite>  (199) 
0

>  <r_i_glide_emodel>  (199) 
-33.1163

>  <r_i_glide_energy>  (199) 
-28.5575

>  <r_i_glide_einternal>  (199) 
0.33595

>  <r_i_glide_intrahb_reward>  (199) 
-0

>  <i_i_glide_confnum>  (199) 
2

>  <i_i_glide_posenum>  (199) 
35

>  <r_i_glide_eff_state_penalty>  (199) 
0

>  <ligand_id>  (199) 
67

>  <original_smiles>  (199) 
CC1CCC2(C)CCC3(C)C(CC=C4C5CC(O)C(O)C(C)(C)C5CCC43C)C2C1C

>  <smiles>  (199) 
[H]OC1([H])C([H])([H])C2([H])C3=C([H])C([H])([H])C4([H])C5([H])C([H])(C([H])([H])[H])C([H])(C([H])([H])[H])C([H])([H])C([H])([H])C5(C([H])([H])[H])C([H])([H])C([H])([H])C4(C([H])([H])[H])C3(C([H])([H])[H])C([H])([H])C([H])([H])C2([H])C(C([H])([H])[H])(C([H])([H])[H])C1([H])O[H]

$$$$
68:0:0
     RDKit          3D

 82 91  0  0  1  0  0  0  0  0999 V2000
    2.6152    1.6743    3.9917 C   0  0  0  0  0  0  0  0  0  0  0  0
    2.3639    0.1877    4.2042 C   0  0  0  0  0  0  0  0  0  0  0  0
    3.3268   -0.7806    4.2686 C   0  0  0  0  0  0  0  0  0  0  0  0
    4.7776   -0.7727    4.0104 C   0  0  0  0  0  0  0  0  0  0  0  0
    5.5293    0.1166    3.6114 O   0  0  0  0  0  0  0  0  0  0  0  0
    5.0720   -2.0673    4.2544 N   0  0  0  0  0  0  0  0  0  0  0  0
    4.1827   -2.2010    5.3944 C   0  0  0  0  0  0  0  0  0  0  0  0
    2.7934   -2.1492    4.6649 C   0  0  1  0  0  0  0  0  0  0  0  0
    2.6652   -3.8060    4.5642 C   0  0  2  0  0  0  0  0  0  0  0  0
    3.3981   -4.6043    5.5137 O   0  0  0  0  0  0  0  0  0  0  0  0
    4.6777   -5.0911    5.1355 C   0  0  1  0  0  0  0  0  0  0  0  0
    4.5950   -6.4718    5.0633 O   0  0  0  0  0  0  0  0  0  0  0  0
    3.7734   -6.7912    3.9397 C   0  0  2  0  0  0  0  0  0  0  0  0
    2.3789   -7.2087    4.4397 C   0  0  0  0  0  0  0  0  0  0  0  0
    2.9303   -8.6238    4.6565 C   0  0  1  0  0  0  0  0  0  0  0  0
    1.9988   -9.8560    4.5590 C   0  0  0  0  0  0  0  0  0  0  0  0
    2.7335  -11.1355    5.0214 C   0  0  0  0  0  0  0  0  0  0  0  0
    0.7652   -9.6653    5.4612 C   0  0  0  0  0  0  0  0  0  0  0  0
    1.5151  -10.0558    3.1077 C   0  0  0  0  0  0  0  0  0  0  0  0
    2.6703  -10.0468    2.0984 C   0  0  0  0  0  0  0  0  0  0  0  0
    3.4279   -8.7139    2.1260 C   0  0  0  0  0  0  0  0  0  0  0  0
    3.9448   -8.2984    3.5245 C   0  0  1  0  0  0  0  0  0  0  0  0
    5.3485   -8.8924    3.6984 C   0  0  0  0  0  0  0  0  0  0  0  0
    3.9723   -5.5364    3.0327 C   0  0  2  0  0  0  0  0  0  0  0  0
    4.3814   -5.8586    1.5758 C   0  0  0  0  0  0  0  0  0  0  0  0
    5.0532   -4.6886    3.6871 C   0  0  1  0  0  0  0  0  0  0  0  0
    4.8305   -3.1844    3.2161 C   0  0  1  0  0  0  0  0  0  0  0  0
    3.3510   -3.2834    2.5727 C   0  0  1  0  0  0  0  0  0  0  0  0
    2.8169   -4.4901    3.1766 C   0  0  2  0  0  0  0  0  0  0  0  0
    2.5075   -2.0992    3.0333 C   0  0  2  0  0  0  0  0  0  0  0  0
    2.8542   -1.1736    1.7431 C   0  0  0  0  0  0  0  0  0  0  0  0
    1.0578   -1.8181    3.1599 N   0  0  0  0  0  0  0  0  0  0  0  0
    0.9353   -0.4230    3.8556 C   0  0  1  0  0  0  0  0  0  0  0  0
    0.0297   -0.5549    5.0866 C   0  0  0  0  0  0  0  0  0  0  0  0
   -0.6861    0.7720    5.0847 C   0  0  0  0  0  0  0  0  0  0  0  0
   -0.8602    1.0276    3.5857 C   0  0  1  0  0  0  0  0  0  0  0  0
   -0.8741    2.5159    3.2278 C   0  0  0  0  0  0  0  0  0  0  0  0
    0.2516    0.3989    2.9562 O   0  0  0  0  0  0  0  0  0  0  0  0
    2.2093    2.0249    3.0429 H   0  0  0  0  0  0  0  0  0  0  0  0
    3.6738    1.9289    4.0215 H   0  0  0  0  0  0  0  0  0  0  0  0
    2.1330    2.2311    4.7966 H   0  0  0  0  0  0  0  0  0  0  0  0
    4.4920   -2.9083    6.1524 H   0  0  0  0  0  0  0  0  0  0  0  0
    4.2584   -1.4055    6.1689 H   0  0  0  0  0  0  0  0  0  0  0  0
    1.6370   -3.9932    4.8661 H   0  0  0  0  0  0  0  0  0  0  0  0
    5.4446   -4.8254    5.8639 H   0  0  0  0  0  0  0  0  0  0  0  0
    2.0394   -6.7216    5.3543 H   0  0  0  0  0  0  0  0  0  0  0  0
    1.6226   -7.1586    3.6543 H   0  0  0  0  0  0  0  0  0  0  0  0
    3.4467   -8.6248    5.6185 H   0  0  0  0  0  0  0  0  0  0  0  0
    2.1097  -12.0232    4.8914 H   0  0  0  0  0  0  0  0  0  0  0  0
    3.0004  -11.0894    6.0774 H   0  0  0  0  0  0  0  0  0  0  0  0
    3.6524  -11.3074    4.4632 H   0  0  0  0  0  0  0  0  0  0  0  0
    0.1148  -10.5412    5.4191 H   0  0  0  0  0  0  0  0  0  0  0  0
    0.1712   -8.8038    5.1523 H   0  0  0  0  0  0  0  0  0  0  0  0
    1.0492   -9.5223    6.5032 H   0  0  0  0  0  0  0  0  0  0  0  0
    0.9512  -10.9838    3.0106 H   0  0  0  0  0  0  0  0  0  0  0  0
    0.8165   -9.2625    2.8385 H   0  0  0  0  0  0  0  0  0  0  0  0
    3.3565  -10.8757    2.2767 H   0  0  0  0  0  0  0  0  0  0  0  0
    2.2749  -10.1926    1.0942 H   0  0  0  0  0  0  0  0  0  0  0  0
    4.2323   -8.7435    1.3893 H   0  0  0  0  0  0  0  0  0  0  0  0
    2.7098   -7.9761    1.7685 H   0  0  0  0  0  0  0  0  0  0  0  0
    5.3647   -9.9649    3.5019 H   0  0  0  0  0  0  0  0  0  0  0  0
    5.7145   -8.7579    4.7178 H   0  0  0  0  0  0  0  0  0  0  0  0
    6.0707   -8.4197    3.0341 H   0  0  0  0  0  0  0  0  0  0  0  0
    4.8535   -5.0168    1.0706 H   0  0  0  0  0  0  0  0  0  0  0  0
    3.5237   -6.1482    0.9756 H   0  0  0  0  0  0  0  0  0  0  0  0
    5.1189   -6.6559    1.5479 H   0  0  0  0  0  0  0  0  0  0  0  0
    6.0650   -5.0432    3.4762 H   0  0  0  0  0  0  0  0  0  0  0  0
    5.5257   -2.9748    2.4002 H   0  0  0  0  0  0  0  0  0  0  0  0
    3.3740   -3.4214    1.4890 H   0  0  0  0  0  0  0  0  0  0  0  0
    1.8651   -4.8053    2.7469 H   0  0  0  0  0  0  0  0  0  0  0  0
    3.9079   -1.1379    1.4547 H   0  0  0  0  0  0  0  0  0  0  0  0
    2.5016   -0.1427    1.7502 H   0  0  0  0  0  0  0  0  0  0  0  0
    2.3225   -1.5868    0.8824 H   0  0  0  0  0  0  0  0  0  0  0  0
    0.4777   -1.9243    2.3340 H   0  0  0  0  0  0  0  0  0  0  0  0
   -0.6721   -1.3797    4.9531 H   0  0  0  0  0  0  0  0  0  0  0  0
    0.6214   -0.7247    5.9875 H   0  0  0  0  0  0  0  0  0  0  0  0
   -1.6332    0.7634    5.6225 H   0  0  0  0  0  0  0  0  0  0  0  0
   -0.0466    1.5352    5.5275 H   0  0  0  0  0  0  0  0  0  0  0  0
   -1.7621    0.5284    3.2257 H   0  0  0  0  0  0  0  0  0  0  0  0
   -1.7227    3.0187    3.6846 H   0  0  0  0  0  0  0  0  0  0  0  0
   -0.9328    2.6585    2.1490 H   0  0  0  0  0  0  0  0  0  0  0  0
    0.0312    3.0166    3.5700 H   0  0  0  0  0  0  0  0  0  0  0  0
  1  2  1  0
  1 39  1  0
  1 40  1  0
  1 41  1  0
  2 33  1  0
  2  3  2  0
  3  8  1  0
  3  4  1  0
  4  5  2  0
  4  6  1  0
  6 27  1  0
  6  7  1  0
  8  7  1  6
  7 42  1  0
  7 43  1  0
  8 30  1  0
  8  9  1  0
  9 29  1  0
  9 10  1  0
  9 44  1  1
 10 11  1  0
 11 26  1  0
 11 12  1  0
 11 45  1  1
 13 12  1  1
 13 22  1  0
 13 14  1  0
 13 24  1  0
 14 15  1  0
 14 46  1  0
 14 47  1  0
 15 22  1  0
 15 16  1  0
 15 48  1  1
 16 17  1  0
 16 18  1  0
 16 19  1  0
 17 49  1  0
 17 50  1  0
 17 51  1  0
 18 52  1  0
 18 53  1  0
 18 54  1  0
 19 20  1  0
 19 55  1  0
 19 56  1  0
 20 21  1  0
 20 57  1  0
 20 58  1  0
 21 22  1  0
 21 59  1  0
 21 60  1  0
 22 23  1  1
 23 61  1  0
 23 62  1  0
 23 63  1  0
 24 29  1  0
 24 25  1  6
 24 26  1  0
 25 64  1  0
 25 65  1  0
 25 66  1  0
 26 27  1  0
 26 67  1  6
 27 28  1  0
 27 68  1  6
 28 29  1  0
 28 30  1  0
 28 69  1  6
 29 70  1  6
 30 31  1  6
 30 32  1  0
 31 71  1  0
 31 72  1  0
 31 73  1  0
 32 33  1  0
 32 74  1  0
 33 38  1  6
 33 34  1  0
 34 35  1  0
 34 75  1  0
 34 76  1  0
 35 36  1  0
 35 77  1  0
 35 78  1  0
 36 37  1  0
 36 38  1  0
 36 79  1  6
 37 80  1  0
 37 81  1  0
 37 82  1  0
M  END
>  <i_m_ct_stereo_status>  (200) 
1

>  <s_m_source_file>  (200) 
/var/tmp/pbs.5076255.sched01/tmp2djcgp0g/84b3bpyveh.sdf

>  <i_m_source_file_index>  (200) 
28

>  <i_lp_mmshare_version>  (200) 
48012

>  <i_f3d_flags>  (200) 
0

>  <s_epik_input>  (200) 
W0NIM11bQ0BASF0oTzEpW0NIMl1bQ0gyXVtDQEBdMShDKFtDSDNdKT1DMltDQEBdMzQ1KVtOSF1bQ0BdNShbQ0gzXSlbQ0BIXTZbQ0BASF0oTihDMj1PKVtDSDJdMylbQ0BIXTdbQ0BIXThPW0NAQEhdNFtDQEBIXTZbQ0BdNyhbQ0gzXSlbQ0BdOShPOClbQ0BAXTEoW0NIM10pW0NAQEhdKFtDSDJdOSlDKFtDSDNdKShbQ0gzXSlbQ0gyXVtDSDJdW0NIMl0x

>  <s_epik_cmdline>  (200) 
J2VwaWtfcHl0aG9uJywgJy1waHQnLCAnMi4wJywgJy1waCcsICc3LjAnLCAnLXRuJywgJzgnLCAnLW1hJywgJzIwMCcsICctaW1hZScsICc8aW5maWxlLm1hZT4nLCAnLW9tYWUnLCAnPG91dGZpbGUubWFlPic=

>  <r_epik_Ionization_Penalty>  (200) 
0.00154809

>  <r_epik_Ionization_Penalty_Charging>  (200) 
0

>  <r_epik_Ionization_Penalty_Neutral>  (200) 
0.00154809

>  <r_epik_State_Penalty>  (200) 
0.00103771

>  <r_epik_Charging_Adjusted_Penalty>  (200) 
0.00103771

>  <i_epik_Tot_Q>  (200) 
0

>  <i_epik_Tot_abs_Q>  (200) 
0

>  <s_epik_Chemistry_Notes>  (200) 
This compound contains an acetal/aminal-like group ( X-CH(R)-Y where X, Y are N, S, or O) that may be acid/base labile, releasing an aldehyde.

>  <s_lp_Force_Field>  (200) 
OPLS3e

>  <r_lp_Energy>  (200) 
341.815

>  <b_lp_Chiralities_Consistent>  (200) 
1

>  <s_lp_Variant>  (200) 
68:0-1

>  <s_i_glide_gridfile>  (200) 
pfpi4k_grid

>  <i_i_glide_lignum>  (200) 
28

>  <i_i_glide_rotatable_bonds>  (200) 
0

>  <r_i_docking_score>  (200) 
-1.79962

>  <r_i_glide_ligand_efficiency>  (200) 
-0.0473585

>  <r_i_glide_ligand_efficiency_sa>  (200) 
-0.159218

>  <r_i_glide_ligand_efficiency_ln>  (200) 
-0.388051

>  <r_i_glide_gscore>  (200) 
-1.79962

>  <r_i_glide_lipo>  (200) 
-0.166228

>  <r_i_glide_hbond>  (200) 
-0.0092425

>  <r_i_glide_metal>  (200) 
-0

>  <r_i_glide_rewards>  (200) 
-0.153804

>  <r_i_glide_evdw>  (200) 
-22.6818

>  <r_i_glide_ecoul>  (200) 
-2.18812

>  <r_i_glide_erotb>  (200) 
0

>  <r_i_glide_esite>  (200) 
-0.00804033

>  <r_i_glide_emodel>  (200) 
-27.1404

>  <r_i_glide_energy>  (200) 
-24.8699

>  <r_i_glide_einternal>  (200) 
0

>  <r_i_glide_intrahb_reward>  (200) 
-0

>  <i_i_glide_confnum>  (200) 
4

>  <i_i_glide_posenum>  (200) 
26

>  <r_i_glide_eff_state_penalty>  (200) 
0

>  <ligand_id>  (200) 
68

>  <original_smiles>  (200) 
CC1=C2C(=O)N3CC24C2OC5OC6(CC7C(C)(C)CCCC76C)C6(C)C5C3C(C26)C4(C)NC12CCC(C)O2

>  <smiles>  (200) 
[H]N1C2(OC([H])(C([H])([H])[H])C([H])([H])C2([H])[H])C(C([H])([H])[H])=C2C(=O)N3C([H])([H])C24C2([H])OC5([H])OC6(C([H])([H])C7([H])C(C([H])([H])[H])(C([H])([H])[H])C([H])([H])C([H])([H])C([H])([H])C76C([H])([H])[H])C6(C([H])([H])[H])C5([H])C3([H])C([H])(C26[H])C14C([H])([H])[H]

$$$$
68:0:1
     RDKit          3D

 82 91  0  0  1  0  0  0  0  0999 V2000
    3.0755    1.9383    4.9305 C   0  0  0  0  0  0  0  0  0  0  0  0
    2.6897    0.4650    4.8788 C   0  0  0  0  0  0  0  0  0  0  0  0
    3.5404   -0.5928    5.0316 C   0  0  0  0  0  0  0  0  0  0  0  0
    5.0076   -0.6982    5.1059 C   0  0  0  0  0  0  0  0  0  0  0  0
    5.8888    0.1468    4.9790 O   0  0  0  0  0  0  0  0  0  0  0  0
    5.1478   -2.0440    5.2394 N   0  0  0  0  0  0  0  0  0  0  0  0
    4.0067   -2.2161    6.1232 C   0  0  0  0  0  0  0  0  0  0  0  0
    2.8367   -1.9439    5.1137 C   0  0  1  0  0  0  0  0  0  0  0  0
    2.6108   -3.5537    4.7582 C   0  0  2  0  0  0  0  0  0  0  0  0
    3.0402   -4.5279    5.7293 O   0  0  0  0  0  0  0  0  0  0  0  0
    4.3383   -5.0927    5.5853 C   0  0  1  0  0  0  0  0  0  0  0  0
    4.1785   -6.4410    5.3091 O   0  0  0  0  0  0  0  0  0  0  0  0
    3.6264   -6.5432    3.9963 C   0  0  2  0  0  0  0  0  0  0  0  0
    2.1273   -6.8742    4.1116 C   0  0  0  0  0  0  0  0  0  0  0  0
    2.5139   -8.3527    4.2540 C   0  0  1  0  0  0  0  0  0  0  0  0
    1.5488   -9.4677    3.7863 C   0  0  0  0  0  0  0  0  0  0  0  0
    2.0613  -10.8581    4.2245 C   0  0  0  0  0  0  0  0  0  0  0  0
    0.1524   -9.2569    4.3947 C   0  0  0  0  0  0  0  0  0  0  0  0
    1.4119   -9.4488    2.2514 C   0  0  0  0  0  0  0  0  0  0  0  0
    2.7688   -9.4461    1.5408 C   0  0  0  0  0  0  0  0  0  0  0  0
    3.5848   -8.1996    1.9092 C   0  0  0  0  0  0  0  0  0  0  0  0
    3.7857   -8.0009    3.4308 C   0  0  1  0  0  0  0  0  0  0  0  0
    5.0640   -8.7467    3.8353 C   0  0  0  0  0  0  0  0  0  0  0  0
    4.1206   -5.2159    3.3377 C   0  0  2  0  0  0  0  0  0  0  0  0
    4.8405   -5.4055    1.9820 C   0  0  0  0  0  0  0  0  0  0  0  0
    5.0736   -4.5620    4.3267 C   0  0  1  0  0  0  0  0  0  0  0  0
    5.0703   -2.9964    4.0303 C   0  0  1  0  0  0  0  0  0  0  0  0
    3.7812   -2.8804    3.0653 C   0  0  1  0  0  0  0  0  0  0  0  0
    3.0374   -4.0876    3.3608 C   0  0  2  0  0  0  0  0  0  0  0  0
    2.9460   -1.6801    3.4803 C   0  0  2  0  0  0  0  0  0  0  0  0
    3.6467   -0.6489    2.4313 C   0  0  0  0  0  0  0  0  0  0  0  0
    1.5341   -1.2756    3.3135 N   0  0  0  0  0  0  0  0  0  0  0  0
    1.3462    0.0520    4.1413 C   0  0  1  0  0  0  0  0  0  0  0  0
    0.1543   -0.1011    5.0932 C   0  0  0  0  0  0  0  0  0  0  0  0
   -1.0398    0.3273    4.2498 C   0  0  0  0  0  0  0  0  0  0  0  0
   -0.4226    0.7335    2.9076 C   0  0  1  0  0  0  0  0  0  0  0  0
   -1.0922    1.9140    2.2205 C   0  0  0  0  0  0  0  0  0  0  0  0
    0.9255    1.0255    3.2394 O   0  0  0  0  0  0  0  0  0  0  0  0
    2.9259    2.4309    3.9689 H   0  0  0  0  0  0  0  0  0  0  0  0
    4.1091    2.0833    5.2389 H   0  0  0  0  0  0  0  0  0  0  0  0
    2.4416    2.4328    5.6680 H   0  0  0  0  0  0  0  0  0  0  0  0
    4.0774   -3.0356    6.8243 H   0  0  0  0  0  0  0  0  0  0  0  0
    3.9530   -1.5253    6.9936 H   0  0  0  0  0  0  0  0  0  0  0  0
    1.5278   -3.6689    4.7870 H   0  0  0  0  0  0  0  0  0  0  0  0
    4.9288   -4.9966    6.4983 H   0  0  0  0  0  0  0  0  0  0  0  0
    1.6198   -6.4662    4.9862 H   0  0  0  0  0  0  0  0  0  0  0  0
    1.5779   -6.6596    3.1928 H   0  0  0  0  0  0  0  0  0  0  0  0
    2.7880   -8.5133    5.3002 H   0  0  0  0  0  0  0  0  0  0  0  0
    1.4257  -11.6563    3.8362 H   0  0  0  0  0  0  0  0  0  0  0  0
    2.0774  -10.9603    5.3099 H   0  0  0  0  0  0  0  0  0  0  0  0
    3.0715  -11.0547    3.8683 H   0  0  0  0  0  0  0  0  0  0  0  0
   -0.5323  -10.0396    4.0674 H   0  0  0  0  0  0  0  0  0  0  0  0
   -0.2813   -8.3048    4.0874 H   0  0  0  0  0  0  0  0  0  0  0  0
    0.1827   -9.2781    5.4849 H   0  0  0  0  0  0  0  0  0  0  0  0
    0.8199  -10.2964    1.9138 H   0  0  0  0  0  0  0  0  0  0  0  0
    0.8542   -8.5658    1.9381 H   0  0  0  0  0  0  0  0  0  0  0  0
    3.3357  -10.3497    1.7634 H   0  0  0  0  0  0  0  0  0  0  0  0
    2.6039   -9.4566    0.4664 H   0  0  0  0  0  0  0  0  0  0  0  0
    4.5389   -8.2237    1.3801 H   0  0  0  0  0  0  0  0  0  0  0  0
    3.0258   -7.3582    1.5001 H   0  0  0  0  0  0  0  0  0  0  0  0
    5.0502   -9.7863    3.5009 H   0  0  0  0  0  0  0  0  0  0  0  0
    5.1873   -8.7688    4.9196 H   0  0  0  0  0  0  0  0  0  0  0  0
    5.9521   -8.2727    3.4198 H   0  0  0  0  0  0  0  0  0  0  0  0
    5.4755   -4.5615    1.7150 H   0  0  0  0  0  0  0  0  0  0  0  0
    4.1303   -5.5381    1.1686 H   0  0  0  0  0  0  0  0  0  0  0  0
    5.5066   -6.2643    2.0145 H   0  0  0  0  0  0  0  0  0  0  0  0
    6.0806   -4.9879    4.3016 H   0  0  0  0  0  0  0  0  0  0  0  0
    5.9256   -2.7548    3.3996 H   0  0  0  0  0  0  0  0  0  0  0  0
    4.0525   -2.8910    2.0068 H   0  0  0  0  0  0  0  0  0  0  0  0
    2.1959   -4.2498    2.6859 H   0  0  0  0  0  0  0  0  0  0  0  0
    4.7390   -0.6808    2.3962 H   0  0  0  0  0  0  0  0  0  0  0  0
    3.3784    0.4044    2.5001 H   0  0  0  0  0  0  0  0  0  0  0  0
    3.3095   -0.9037    1.4209 H   0  0  0  0  0  0  0  0  0  0  0  0
    1.1637   -1.2526    2.3693 H   0  0  0  0  0  0  0  0  0  0  0  0
    0.0876   -1.1196    5.4790 H   0  0  0  0  0  0  0  0  0  0  0  0
    0.2852    0.5835    5.9333 H   0  0  0  0  0  0  0  0  0  0  0  0
   -1.7822   -0.4624    4.1299 H   0  0  0  0  0  0  0  0  0  0  0  0
   -1.5269    1.1810    4.7203 H   0  0  0  0  0  0  0  0  0  0  0  0
   -0.4372   -0.1039    2.2112 H   0  0  0  0  0  0  0  0  0  0  0  0
   -2.1274    1.6772    1.9765 H   0  0  0  0  0  0  0  0  0  0  0  0
   -0.5685    2.1419    1.2924 H   0  0  0  0  0  0  0  0  0  0  0  0
   -1.0765    2.8067    2.8419 H   0  0  0  0  0  0  0  0  0  0  0  0
  1  2  1  0
  1 39  1  0
  1 40  1  0
  1 41  1  0
  2 33  1  0
  2  3  2  0
  3  8  1  0
  3  4  1  0
  4  5  2  0
  4  6  1  0
  6 27  1  0
  6  7  1  0
  8  7  1  6
  7 42  1  0
  7 43  1  0
  8 30  1  0
  8  9  1  0
  9 29  1  0
  9 10  1  0
  9 44  1  6
 10 11  1  0
 11 26  1  0
 11 12  1  0
 11 45  1  1
 13 12  1  1
 13 22  1  0
 13 14  1  0
 13 24  1  0
 14 15  1  0
 14 46  1  0
 14 47  1  0
 15 22  1  0
 15 16  1  0
 15 48  1  1
 16 17  1  0
 16 18  1  0
 16 19  1  0
 17 49  1  0
 17 50  1  0
 17 51  1  0
 18 52  1  0
 18 53  1  0
 18 54  1  0
 19 20  1  0
 19 55  1  0
 19 56  1  0
 20 21  1  0
 20 57  1  0
 20 58  1  0
 21 22  1  0
 21 59  1  0
 21 60  1  0
 22 23  1  1
 23 61  1  0
 23 62  1  0
 23 63  1  0
 24 29  1  0
 24 25  1  6
 24 26  1  0
 25 64  1  0
 25 65  1  0
 25 66  1  0
 26 27  1  0
 26 67  1  6
 27 28  1  0
 27 68  1  6
 28 29  1  0
 28 30  1  0
 28 69  1  6
 29 70  1  6
 30 31  1  1
 30 32  1  0
 31 71  1  0
 31 72  1  0
 31 73  1  0
 32 33  1  0
 32 74  1  0
 33 38  1  6
 33 34  1  0
 34 35  1  0
 34 75  1  0
 34 76  1  0
 35 36  1  0
 35 77  1  0
 35 78  1  0
 36 37  1  0
 36 38  1  0
 36 79  1  6
 37 80  1  0
 37 81  1  0
 37 82  1  0
M  END
>  <i_m_ct_stereo_status>  (201) 
1

>  <s_m_source_file>  (201) 
/var/tmp/pbs.5076255.sched01/tmp2djcgp0g/84b3bpyveh.sdf

>  <i_m_source_file_index>  (201) 
28

>  <i_lp_mmshare_version>  (201) 
48012

>  <i_f3d_flags>  (201) 
0

>  <s_epik_input>  (201) 
W0NIM11bQ0BASF0oTzEpW0NIMl1bQ0gyXVtDQEBdMShDKFtDSDNdKT1DMltDQEBdMzQ1KVtOSF1bQ0BdNShbQ0gzXSlbQ0BIXTZbQ0BASF0oTihDMj1PKVtDSDJdMylbQ0BIXTdbQ0BIXThPW0NAQEhdNFtDQEBIXTZbQ0BdNyhbQ0gzXSlbQ0BdOShPOClbQ0BAXTEoW0NIM10pW0NAQEhdKFtDSDJdOSlDKFtDSDNdKShbQ0gzXSlbQ0gyXVtDSDJdW0NIMl0x

>  <s_epik_cmdline>  (201) 
J2VwaWtfcHl0aG9uJywgJy1waHQnLCAnMi4wJywgJy1waCcsICc3LjAnLCAnLXRuJywgJzgnLCAnLW1hJywgJzIwMCcsICctaW1hZScsICc8aW5maWxlLm1hZT4nLCAnLW9tYWUnLCAnPG91dGZpbGUubWFlPic=

>  <r_epik_Ionization_Penalty>  (201) 
0.00154809

>  <r_epik_Ionization_Penalty_Charging>  (201) 
0

>  <r_epik_Ionization_Penalty_Neutral>  (201) 
0.00154809

>  <r_epik_State_Penalty>  (201) 
0.00103771

>  <r_epik_Charging_Adjusted_Penalty>  (201) 
0.00103771

>  <i_epik_Tot_Q>  (201) 
0

>  <i_epik_Tot_abs_Q>  (201) 
0

>  <s_epik_Chemistry_Notes>  (201) 
This compound contains an acetal/aminal-like group ( X-CH(R)-Y where X, Y are N, S, or O) that may be acid/base labile, releasing an aldehyde.

>  <s_lp_Force_Field>  (201) 
OPLS3e

>  <r_lp_Energy>  (201) 
341.815

>  <b_lp_Chiralities_Consistent>  (201) 
1

>  <s_lp_Variant>  (201) 
68:0-1

>  <s_i_glide_gridfile>  (201) 
pfpi4k_grid

>  <i_i_glide_lignum>  (201) 
28

>  <i_i_glide_rotatable_bonds>  (201) 
0

>  <r_i_docking_score>  (201) 
-1.55012

>  <r_i_glide_ligand_efficiency>  (201) 
-0.0407926

>  <r_i_glide_ligand_efficiency_sa>  (201) 
-0.137144

>  <r_i_glide_ligand_efficiency_ln>  (201) 
-0.334251

>  <r_i_glide_gscore>  (201) 
-1.55012

>  <r_i_glide_lipo>  (201) 
-0.158594

>  <r_i_glide_hbond>  (201) 
0

>  <r_i_glide_metal>  (201) 
-0

>  <r_i_glide_rewards>  (201) 
-0.0999355

>  <r_i_glide_evdw>  (201) 
-21.748

>  <r_i_glide_ecoul>  (201) 
-1.33817

>  <r_i_glide_erotb>  (201) 
0

>  <r_i_glide_esite>  (201) 
-0.00346256

>  <r_i_glide_emodel>  (201) 
-24.9111

>  <r_i_glide_energy>  (201) 
-23.0862

>  <r_i_glide_einternal>  (201) 
0

>  <r_i_glide_intrahb_reward>  (201) 
-0

>  <i_i_glide_confnum>  (201) 
6

>  <i_i_glide_posenum>  (201) 
30

>  <r_i_glide_eff_state_penalty>  (201) 
0

>  <ligand_id>  (201) 
68

>  <original_smiles>  (201) 
CC1=C2C(=O)N3CC24C2OC5OC6(CC7C(C)(C)CCCC76C)C6(C)C5C3C(C26)C4(C)NC12CCC(C)O2

>  <smiles>  (201) 
[H]N1C2(OC([H])(C([H])([H])[H])C([H])([H])C2([H])[H])C(C([H])([H])[H])=C2C(=O)N3C([H])([H])C24C2([H])OC5([H])OC6(C([H])([H])C7([H])C(C([H])([H])[H])(C([H])([H])[H])C([H])([H])C([H])([H])C([H])([H])C76C([H])([H])[H])C6(C([H])([H])[H])C5([H])C3([H])C([H])(C26[H])C14C([H])([H])[H]

$$$$
68:0:2
     RDKit          3D

 82 91  0  0  1  0  0  0  0  0999 V2000
    1.8546    1.8196    4.9612 C   0  0  0  0  0  0  0  0  0  0  0  0
    1.7619    0.3193    4.7421 C   0  0  0  0  0  0  0  0  0  0  0  0
    2.7687   -0.5804    4.9589 C   0  0  0  0  0  0  0  0  0  0  0  0
    4.2055   -0.4285    5.2669 C   0  0  0  0  0  0  0  0  0  0  0  0
    4.9131    0.5700    5.3544 O   0  0  0  0  0  0  0  0  0  0  0  0
    4.5784   -1.7339    5.3320 N   0  0  0  0  0  0  0  0  0  0  0  0
    3.3705   -2.1871    5.9998 C   0  0  0  0  0  0  0  0  0  0  0  0
    2.3316   -2.0319    4.8289 C   0  0  1  0  0  0  0  0  0  0  0  0
    2.4755   -3.6156    4.3362 C   0  0  2  0  0  0  0  0  0  0  0  0
    2.9270   -4.5833    5.3039 O   0  0  0  0  0  0  0  0  0  0  0  0
    4.3150   -4.8976    5.3378 C   0  0  1  0  0  0  0  0  0  0  0  0
    4.4561   -6.2170    4.9478 O   0  0  0  0  0  0  0  0  0  0  0  0
    4.1384   -6.2903    3.5586 C   0  0  2  0  0  0  0  0  0  0  0  0
    2.7305   -6.8910    3.4015 C   0  0  0  0  0  0  0  0  0  0  0  0
    3.3664   -8.2828    3.5058 C   0  0  1  0  0  0  0  0  0  0  0  0
    2.7113   -9.5027    2.8107 C   0  0  0  0  0  0  0  0  0  0  0  0
    3.4085  -10.8152    3.2316 C   0  0  0  0  0  0  0  0  0  0  0  0
    1.2219   -9.6106    3.1950 C   0  0  0  0  0  0  0  0  0  0  0  0
    2.8067   -9.3466    1.2847 C   0  0  0  0  0  0  0  0  0  0  0  0
    4.2231   -9.0424    0.7974 C   0  0  0  0  0  0  0  0  0  0  0  0
    4.7274   -7.7182    1.3846 C   0  0  0  0  0  0  0  0  0  0  0  0
    4.6572   -7.6339    2.9302 C   0  0  1  0  0  0  0  0  0  0  0  0
    5.9773   -8.1777    3.4887 C   0  0  0  0  0  0  0  0  0  0  0  0
    4.4646   -4.8410    3.0823 C   0  0  2  0  0  0  0  0  0  0  0  0
    5.4041   -4.7653    1.8535 C   0  0  0  0  0  0  0  0  0  0  0  0
    5.1162   -4.1277    4.2592 C   0  0  1  0  0  0  0  0  0  0  0  0
    4.8690   -2.5662    4.0692 C   0  0  1  0  0  0  0  0  0  0  0  0
    3.7373   -2.5778    2.9104 C   0  0  1  0  0  0  0  0  0  0  0  0
    3.1986   -3.9219    2.9994 C   0  0  2  0  0  0  0  0  0  0  0  0
    2.6305   -1.5927    3.2554 C   0  0  2  0  0  0  0  0  0  0  0  0
    3.2741   -0.3587    2.4162 C   0  0  0  0  0  0  0  0  0  0  0  0
    1.2046   -1.4276    2.8752 N   0  0  0  0  0  0  0  0  0  0  0  0
    0.6491   -0.2602    3.7653 C   0  0  1  0  0  0  0  0  0  0  0  0
   -0.5999   -0.7446    4.5178 C   0  0  0  0  0  0  0  0  0  0  0  0
   -1.4580    0.4972    4.5248 C   0  0  0  0  0  0  0  0  0  0  0  0
   -1.1326    1.1090    3.1647 C   0  0  1  0  0  0  0  0  0  0  0  0
   -1.2394    2.6326    3.1531 C   0  0  0  0  0  0  0  0  0  0  0  0
    0.2120    0.7275    2.8772 O   0  0  0  0  0  0  0  0  0  0  0  0
    1.7665    2.3750    4.0275 H   0  0  0  0  0  0  0  0  0  0  0  0
    2.7884    2.1161    5.4454 H   0  0  0  0  0  0  0  0  0  0  0  0
    1.0469    2.1327    5.6236 H   0  0  0  0  0  0  0  0  0  0  0  0
    3.4874   -3.0488    6.6536 H   0  0  0  0  0  0  0  0  0  0  0  0
    3.0559   -1.6092    6.8896 H   0  0  0  0  0  0  0  0  0  0  0  0
    1.4427   -3.9203    4.1833 H   0  0  0  0  0  0  0  0  0  0  0  0
    4.7318   -4.7839    6.3386 H   0  0  0  0  0  0  0  0  0  0  0  0
    2.0305   -6.6658    4.2067 H   0  0  0  0  0  0  0  0  0  0  0  0
    2.2978   -6.6893    2.4185 H   0  0  0  0  0  0  0  0  0  0  0  0
    3.5057   -8.4935    4.5689 H   0  0  0  0  0  0  0  0  0  0  0  0
    3.0049  -11.6705    2.6878 H   0  0  0  0  0  0  0  0  0  0  0  0
    3.2808  -11.0142    4.2952 H   0  0  0  0  0  0  0  0  0  0  0  0
    4.4780  -10.7932    3.0320 H   0  0  0  0  0  0  0  0  0  0  0  0
    0.7516  -10.4755    2.7225 H   0  0  0  0  0  0  0  0  0  0  0  0
    0.6653   -8.7280    2.8767 H   0  0  0  0  0  0  0  0  0  0  0  0
    1.0977   -9.7122    4.2739 H   0  0  0  0  0  0  0  0  0  0  0  0
    2.4552  -10.2373    0.7838 H   0  0  0  0  0  0  0  0  0  0  0  0
    2.1342   -8.5639    0.9466 H   0  0  0  0  0  0  0  0  0  0  0  0
    4.9098   -9.8554    1.0365 H   0  0  0  0  0  0  0  0  0  0  0  0
    4.2216   -8.9602   -0.2881 H   0  0  0  0  0  0  0  0  0  0  0  0
    5.7377   -7.5176    1.0209 H   0  0  0  0  0  0  0  0  0  0  0  0
    4.0862   -6.9532    0.9517 H   0  0  0  0  0  0  0  0  0  0  0  0
    6.2152   -9.1660    3.0906 H   0  0  0  0  0  0  0  0  0  0  0  0
    5.9397   -8.2784    4.5749 H   0  0  0  0  0  0  0  0  0  0  0  0
    6.8123   -7.5158    3.2570 H   0  0  0  0  0  0  0  0  0  0  0  0
    5.8992   -3.8009    1.7543 H   0  0  0  0  0  0  0  0  0  0  0  0
    4.8615   -4.9429    0.9304 H   0  0  0  0  0  0  0  0  0  0  0  0
    6.2069   -5.4920    1.9394 H   0  0  0  0  0  0  0  0  0  0  0  0
    6.1750   -4.3677    4.3778 H   0  0  0  0  0  0  0  0  0  0  0  0
    5.7647   -2.1246    3.6307 H   0  0  0  0  0  0  0  0  0  0  0  0
    4.1565   -2.4401    1.9123 H   0  0  0  0  0  0  0  0  0  0  0  0
    2.5156   -4.1700    2.1878 H   0  0  0  0  0  0  0  0  0  0  0  0
    4.3472   -0.1937    2.5615 H   0  0  0  0  0  0  0  0  0  0  0  0
    2.8010    0.6200    2.5128 H   0  0  0  0  0  0  0  0  0  0  0  0
    3.1446   -0.5694    1.3525 H   0  0  0  0  0  0  0  0  0  0  0  0
    0.9907   -1.3498    1.8882 H   0  0  0  0  0  0  0  0  0  0  0  0
   -1.0880   -1.5545    3.9756 H   0  0  0  0  0  0  0  0  0  0  0  0
   -0.3452   -1.0936    5.5158 H   0  0  0  0  0  0  0  0  0  0  0  0
   -2.5226    0.3005    4.6489 H   0  0  0  0  0  0  0  0  0  0  0  0
   -1.1337    1.1637    5.3229 H   0  0  0  0  0  0  0  0  0  0  0  0
   -1.7594    0.6719    2.3850 H   0  0  0  0  0  0  0  0  0  0  0  0
   -2.2542    2.9635    3.3587 H   0  0  0  0  0  0  0  0  0  0  0  0
   -0.9575    3.0085    2.1738 H   0  0  0  0  0  0  0  0  0  0  0  0
   -0.5784    3.0889    3.8913 H   0  0  0  0  0  0  0  0  0  0  0  0
  1  2  1  0
  1 39  1  0
  1 40  1  0
  1 41  1  0
  2 33  1  0
  2  3  2  0
  3  8  1  0
  3  4  1  0
  4  5  2  0
  4  6  1  0
  6 27  1  0
  6  7  1  0
  8  7  1  1
  7 42  1  0
  7 43  1  0
  8 30  1  0
  8  9  1  0
  9 29  1  0
  9 10  1  0
  9 44  1  6
 10 11  1  0
 11 26  1  0
 11 12  1  0
 11 45  1  1
 13 12  1  1
 13 22  1  0
 13 14  1  0
 13 24  1  0
 14 15  1  0
 14 46  1  0
 14 47  1  0
 15 22  1  0
 15 16  1  0
 15 48  1  1
 16 17  1  0
 16 18  1  0
 16 19  1  0
 17 49  1  0
 17 50  1  0
 17 51  1  0
 18 52  1  0
 18 53  1  0
 18 54  1  0
 19 20  1  0
 19 55  1  0
 19 56  1  0
 20 21  1  0
 20 57  1  0
 20 58  1  0
 21 22  1  0
 21 59  1  0
 21 60  1  0
 22 23  1  1
 23 61  1  0
 23 62  1  0
 23 63  1  0
 24 29  1  0
 24 25  1  6
 24 26  1  0
 25 64  1  0
 25 65  1  0
 25 66  1  0
 26 27  1  0
 26 67  1  1
 27 28  1  0
 27 68  1  6
 28 29  1  0
 28 30  1  0
 28 69  1  6
 29 70  1  6
 30 31  1  1
 30 32  1  0
 31 71  1  0
 31 72  1  0
 31 73  1  0
 32 33  1  0
 32 74  1  0
 33 38  1  6
 33 34  1  0
 34 35  1  0
 34 75  1  0
 34 76  1  0
 35 36  1  0
 35 77  1  0
 35 78  1  0
 36 37  1  0
 36 38  1  0
 36 79  1  6
 37 80  1  0
 37 81  1  0
 37 82  1  0
M  END
>  <i_m_ct_stereo_status>  (202) 
1

>  <s_m_source_file>  (202) 
/var/tmp/pbs.5076255.sched01/tmp2djcgp0g/84b3bpyveh.sdf

>  <i_m_source_file_index>  (202) 
28

>  <i_lp_mmshare_version>  (202) 
48012

>  <i_f3d_flags>  (202) 
0

>  <s_epik_input>  (202) 
W0NIM11bQ0BASF0oTzEpW0NIMl1bQ0gyXVtDQEBdMShDKFtDSDNdKT1DMltDQEBdMzQ1KVtOSF1bQ0BdNShbQ0gzXSlbQ0BIXTZbQ0BASF0oTihDMj1PKVtDSDJdMylbQ0BIXTdbQ0BIXThPW0NAQEhdNFtDQEBIXTZbQ0BdNyhbQ0gzXSlbQ0BdOShPOClbQ0BAXTEoW0NIM10pW0NAQEhdKFtDSDJdOSlDKFtDSDNdKShbQ0gzXSlbQ0gyXVtDSDJdW0NIMl0x

>  <s_epik_cmdline>  (202) 
J2VwaWtfcHl0aG9uJywgJy1waHQnLCAnMi4wJywgJy1waCcsICc3LjAnLCAnLXRuJywgJzgnLCAnLW1hJywgJzIwMCcsICctaW1hZScsICc8aW5maWxlLm1hZT4nLCAnLW9tYWUnLCAnPG91dGZpbGUubWFlPic=

>  <r_epik_Ionization_Penalty>  (202) 
0.00154809

>  <r_epik_Ionization_Penalty_Charging>  (202) 
0

>  <r_epik_Ionization_Penalty_Neutral>  (202) 
0.00154809

>  <r_epik_State_Penalty>  (202) 
0.00103771

>  <r_epik_Charging_Adjusted_Penalty>  (202) 
0.00103771

>  <i_epik_Tot_Q>  (202) 
0

>  <i_epik_Tot_abs_Q>  (202) 
0

>  <s_epik_Chemistry_Notes>  (202) 
This compound contains an acetal/aminal-like group ( X-CH(R)-Y where X, Y are N, S, or O) that may be acid/base labile, releasing an aldehyde.

>  <s_lp_Force_Field>  (202) 
OPLS3e

>  <r_lp_Energy>  (202) 
341.815

>  <b_lp_Chiralities_Consistent>  (202) 
1

>  <s_lp_Variant>  (202) 
68:0-1

>  <s_i_glide_gridfile>  (202) 
pfpi4k_grid

>  <i_i_glide_lignum>  (202) 
28

>  <i_i_glide_rotatable_bonds>  (202) 
0

>  <r_i_docking_score>  (202) 
-1.40607

>  <r_i_glide_ligand_efficiency>  (202) 
-0.037002

>  <r_i_glide_ligand_efficiency_sa>  (202) 
-0.1244

>  <r_i_glide_ligand_efficiency_ln>  (202) 
-0.303191

>  <r_i_glide_gscore>  (202) 
-1.40607

>  <r_i_glide_lipo>  (202) 
-0.174182

>  <r_i_glide_hbond>  (202) 
0

>  <r_i_glide_metal>  (202) 
-0

>  <r_i_glide_rewards>  (202) 
-0.0256072

>  <r_i_glide_evdw>  (202) 
-22.9434

>  <r_i_glide_ecoul>  (202) 
-0.314035

>  <r_i_glide_erotb>  (202) 
0

>  <r_i_glide_esite>  (202) 
-0.0120095

>  <r_i_glide_emodel>  (202) 
-24.8909

>  <r_i_glide_energy>  (202) 
-23.2574

>  <r_i_glide_einternal>  (202) 
0

>  <r_i_glide_intrahb_reward>  (202) 
-0

>  <i_i_glide_confnum>  (202) 
1

>  <i_i_glide_posenum>  (202) 
17

>  <r_i_glide_eff_state_penalty>  (202) 
0

>  <ligand_id>  (202) 
68

>  <original_smiles>  (202) 
CC1=C2C(=O)N3CC24C2OC5OC6(CC7C(C)(C)CCCC76C)C6(C)C5C3C(C26)C4(C)NC12CCC(C)O2

>  <smiles>  (202) 
[H]N1C2(OC([H])(C([H])([H])[H])C([H])([H])C2([H])[H])C(C([H])([H])[H])=C2C(=O)N3C([H])([H])C24C2([H])OC5([H])OC6(C([H])([H])C7([H])C(C([H])([H])[H])(C([H])([H])[H])C([H])([H])C([H])([H])C([H])([H])C76C([H])([H])[H])C6(C([H])([H])[H])C5([H])C3([H])C([H])(C26[H])C14C([H])([H])[H]

$$$$
69:0:0
     RDKit          3D

 26 27  0  0  1  0  0  0  0  0999 V2000
    5.0364   -0.9125    0.6330 C   0  0  0  0  0  0  0  0  0  0  0  0
    4.9991   -1.8202   -0.5964 C   0  0  2  0  0  0  0  0  0  0  0  0
    3.7014   -1.7278   -1.3666 C   0  0  0  0  0  0  0  0  0  0  0  0
    3.1284   -3.0634   -1.2596 N   0  0  0  0  0  0  0  0  0  0  0  0
    2.1049   -3.3718   -2.2350 C   0  0  0  0  0  0  0  0  0  0  0  0
    2.5807   -3.4451   -3.7163 C   0  0  0  0  0  0  0  0  0  0  0  0
    3.2373   -2.2030   -4.2510 C   0  0  0  0  0  0  0  0  0  0  0  0
    3.7470   -1.2709   -4.6420 N   0  0  0  0  0  0  0  0  0  0  0  0
    4.2466   -4.0301   -1.2128 C   0  0  0  0  0  0  0  0  0  0  0  0
    5.3526   -3.2950   -0.4909 C   0  0  1  0  0  0  0  0  0  0  0  0
    6.6239   -2.9143   -1.2468 C   0  0  0  0  0  0  0  0  0  0  0  0
    6.1403   -1.5695   -1.4434 O   0  0  0  0  0  0  0  0  0  0  0  0
    4.2012   -1.1635    1.2898 H   0  0  0  0  0  0  0  0  0  0  0  0
    4.9134    0.1206    0.3242 H   0  0  0  0  0  0  0  0  0  0  0  0
    5.9839   -1.0076    1.1906 H   0  0  0  0  0  0  0  0  0  0  0  0
    3.0313   -0.9661   -0.9633 H   0  0  0  0  0  0  0  0  0  0  0  0
    3.9982   -1.4675   -2.3717 H   0  0  0  0  0  0  0  0  0  0  0  0
    1.6329   -4.3186   -1.9989 H   0  0  0  0  0  0  0  0  0  0  0  0
    1.2927   -2.6472   -2.1676 H   0  0  0  0  0  0  0  0  0  0  0  0
    3.2963   -4.2461   -3.8530 H   0  0  0  0  0  0  0  0  0  0  0  0
    1.7785   -3.6535   -4.3855 H   0  0  0  0  0  0  0  0  0  0  0  0
    3.9580   -4.9640   -0.7268 H   0  0  0  0  0  0  0  0  0  0  0  0
    4.5623   -4.2632   -2.2376 H   0  0  0  0  0  0  0  0  0  0  0  0
    5.5106   -3.5995    0.5550 H   0  0  0  0  0  0  0  0  0  0  0  0
    7.5279   -2.9486   -0.6349 H   0  0  0  0  0  0  0  0  0  0  0  0
    6.7805   -3.4681   -2.1911 H   0  0  0  0  0  0  0  0  0  0  0  0
  2  1  1  1
  1 13  1  0
  1 14  1  0
  1 15  1  0
  2 10  1  0
  2 12  1  0
  2  3  1  0
  3  4  1  0
  3 16  1  0
  3 17  1  0
  4  5  1  0
  4  9  1  0
  5  6  1  0
  5 18  1  0
  5 19  1  0
  6  7  1  0
  6 20  1  0
  6 21  1  0
  7  8  3  0
  9 10  1  0
  9 22  1  0
  9 23  1  0
 10 11  1  0
 10 24  1  1
 11 12  1  0
 11 25  1  0
 11 26  1  0
M  END
>  <i_m_ct_stereo_status>  (203) 
1

>  <s_m_source_file>  (203) 
/var/tmp/pbs.5076255.sched01/tmp2djcgp0g/84b3bpyveh.sdf

>  <i_m_source_file_index>  (203) 
29

>  <i_lp_mmshare_version>  (203) 
48012

>  <i_f3d_flags>  (203) 
0

>  <s_epik_input>  (203) 
W0NIM11bQ0BAXTEyW0NASF0oW0NIMl1PMilbQ0gyXU4oW0NIMl0xKVtDSDJdW0NIMl1DI04=

>  <s_epik_cmdline>  (203) 
J2VwaWtfcHl0aG9uJywgJy1waHQnLCAnMi4wJywgJy1waCcsICc3LjAnLCAnLXRuJywgJzgnLCAnLW1hJywgJzIwMCcsICctaW1hZScsICc8aW5maWxlLm1hZT4nLCAnLW9tYWUnLCAnPG91dGZpbGUubWFlPic=

>  <r_epik_Ionization_Penalty>  (203) 
0.0339717

>  <r_epik_Ionization_Penalty_Charging>  (203) 
0

>  <r_epik_Ionization_Penalty_Neutral>  (203) 
0.0339717

>  <r_epik_State_Penalty>  (203) 
0.0282354

>  <r_epik_Charging_Adjusted_Penalty>  (203) 
0.0282354

>  <i_epik_Tot_Q>  (203) 
0

>  <i_epik_Tot_abs_Q>  (203) 
0

>  <s_lp_Force_Field>  (203) 
OPLS3e

>  <r_lp_Energy>  (203) 
1.51058

>  <b_lp_Chiralities_Consistent>  (203) 
1

>  <s_lp_Variant>  (203) 
69:0-1

>  <s_i_glide_gridfile>  (203) 
pfpi4k_grid

>  <i_i_glide_lignum>  (203) 
29

>  <i_i_glide_rotatable_bonds>  (203) 
3

>  <r_i_docking_score>  (203) 
-3.86148

>  <r_i_glide_ligand_efficiency>  (203) 
-0.32179

>  <r_i_glide_ligand_efficiency_sa>  (203) 
-0.736714

>  <r_i_glide_ligand_efficiency_ln>  (203) 
-1.10806

>  <r_i_glide_gscore>  (203) 
-3.86148

>  <r_i_glide_lipo>  (203) 
-0.584894

>  <r_i_glide_hbond>  (203) 
-0.440516

>  <r_i_glide_metal>  (203) 
-0

>  <r_i_glide_rewards>  (203) 
-2.25

>  <r_i_glide_evdw>  (203) 
-13.6555

>  <r_i_glide_ecoul>  (203) 
-6.5919

>  <r_i_glide_erotb>  (203) 
1.10731

>  <r_i_glide_esite>  (203) 
-0.0218206

>  <r_i_glide_emodel>  (203) 
-21.6031

>  <r_i_glide_energy>  (203) 
-20.2474

>  <r_i_glide_einternal>  (203) 
7.21714

>  <r_i_glide_intrahb_reward>  (203) 
-0

>  <i_i_glide_confnum>  (203) 
5

>  <i_i_glide_posenum>  (203) 
31

>  <r_i_glide_eff_state_penalty>  (203) 
0

>  <ligand_id>  (203) 
69

>  <original_smiles>  (203) 
CC12CN(CCC#N)CC1CO2

>  <smiles>  (203) 
[H]C([H])([H])C12OC([H])([H])C1([H])C([H])([H])N(C([H])([H])C([H])([H])C#N)C2([H])[H]

$$$$
69:0:1
     RDKit          3D

 26 27  0  0  1  0  0  0  0  0999 V2000
    0.7683    6.7609    4.5637 C   0  0  0  0  0  0  0  0  0  0  0  0
    0.4289    5.2943    4.6534 C   0  0  2  0  0  0  0  0  0  0  0  0
   -0.3091    4.7474    3.4330 C   0  0  0  0  0  0  0  0  0  0  0  0
   -1.6008    4.3071    3.9556 N   0  0  0  0  0  0  0  0  0  0  0  0
   -2.3843    3.4033    3.0958 C   0  0  0  0  0  0  0  0  0  0  0  0
   -1.7713    2.0202    2.8073 C   0  0  0  0  0  0  0  0  0  0  0  0
   -1.7826    1.0361    3.9477 C   0  0  0  0  0  0  0  0  0  0  0  0
   -1.7895    0.3068    4.8254 N   0  0  0  0  0  0  0  0  0  0  0  0
   -1.4089    3.8714    5.3422 C   0  0  0  0  0  0  0  0  0  0  0  0
   -0.2784    4.7451    5.8784 C   0  0  1  0  0  0  0  0  0  0  0  0
    1.0365    4.0587    6.1745 C   0  0  0  0  0  0  0  0  0  0  0  0
    1.5987    4.4967    4.9216 O   0  0  0  0  0  0  0  0  0  0  0  0
   -0.1432    7.3524    4.4476 H   0  0  0  0  0  0  0  0  0  0  0  0
    1.4199    6.9431    3.7109 H   0  0  0  0  0  0  0  0  0  0  0  0
    1.2758    7.0806    5.4773 H   0  0  0  0  0  0  0  0  0  0  0  0
   -0.4068    5.5248    2.6667 H   0  0  0  0  0  0  0  0  0  0  0  0
    0.2496    3.9097    3.0132 H   0  0  0  0  0  0  0  0  0  0  0  0
   -3.3908    3.3008    3.5048 H   0  0  0  0  0  0  0  0  0  0  0  0
   -2.5257    3.9004    2.1361 H   0  0  0  0  0  0  0  0  0  0  0  0
   -2.3174    1.5499    1.9847 H   0  0  0  0  0  0  0  0  0  0  0  0
   -0.7347    2.0906    2.4770 H   0  0  0  0  0  0  0  0  0  0  0  0
   -2.3207    3.9751    5.9231 H   0  0  0  0  0  0  0  0  0  0  0  0
   -1.0972    2.8310    5.3573 H   0  0  0  0  0  0  0  0  0  0  0  0
   -0.5311    5.5454    6.6197 H   0  0  0  0  0  0  0  0  0  0  0  0
    1.5497    4.4830    7.0205 H   0  0  0  0  0  0  0  0  0  0  0  0
    0.9744    2.9681    6.2257 H   0  0  0  0  0  0  0  0  0  0  0  0
  2  1  1  1
  1 13  1  0
  1 14  1  0
  1 15  1  0
  2 10  1  0
  2 12  1  0
  2  3  1  0
  3  4  1  0
  3 16  1  0
  3 17  1  0
  4  5  1  0
  4  9  1  0
  5  6  1  0
  5 18  1  0
  5 19  1  0
  6  7  1  0
  6 20  1  0
  6 21  1  0
  7  8  3  0
  9 10  1  0
  9 22  1  0
  9 23  1  0
 10 11  1  0
 10 24  1  1
 11 12  1  0
 11 25  1  0
 11 26  1  0
M  END
>  <i_m_ct_stereo_status>  (204) 
1

>  <s_m_source_file>  (204) 
/var/tmp/pbs.5076255.sched01/tmp2djcgp0g/84b3bpyveh.sdf

>  <i_m_source_file_index>  (204) 
29

>  <i_lp_mmshare_version>  (204) 
48012

>  <i_f3d_flags>  (204) 
0

>  <s_epik_input>  (204) 
W0NIM11bQ0BAXTEyW0NASF0oW0NIMl1PMilbQ0gyXU4oW0NIMl0xKVtDSDJdW0NIMl1DI04=

>  <s_epik_cmdline>  (204) 
J2VwaWtfcHl0aG9uJywgJy1waHQnLCAnMi4wJywgJy1waCcsICc3LjAnLCAnLXRuJywgJzgnLCAnLW1hJywgJzIwMCcsICctaW1hZScsICc8aW5maWxlLm1hZT4nLCAnLW9tYWUnLCAnPG91dGZpbGUubWFlPic=

>  <r_epik_Ionization_Penalty>  (204) 
0.0339717

>  <r_epik_Ionization_Penalty_Charging>  (204) 
0

>  <r_epik_Ionization_Penalty_Neutral>  (204) 
0.0339717

>  <r_epik_State_Penalty>  (204) 
0.0282354

>  <r_epik_Charging_Adjusted_Penalty>  (204) 
0.0282354

>  <i_epik_Tot_Q>  (204) 
0

>  <i_epik_Tot_abs_Q>  (204) 
0

>  <s_lp_Force_Field>  (204) 
OPLS3e

>  <r_lp_Energy>  (204) 
1.51058

>  <b_lp_Chiralities_Consistent>  (204) 
1

>  <s_lp_Variant>  (204) 
69:0-1

>  <s_i_glide_gridfile>  (204) 
pfpi4k_grid

>  <i_i_glide_lignum>  (204) 
29

>  <i_i_glide_rotatable_bonds>  (204) 
3

>  <r_i_docking_score>  (204) 
-2.465

>  <r_i_glide_ligand_efficiency>  (204) 
-0.205416

>  <r_i_glide_ligand_efficiency_sa>  (204) 
-0.470286

>  <r_i_glide_ligand_efficiency_ln>  (204) 
-0.707335

>  <r_i_glide_gscore>  (204) 
-2.465

>  <r_i_glide_lipo>  (204) 
0

>  <r_i_glide_hbond>  (204) 
-0.0888722

>  <r_i_glide_metal>  (204) 
-0

>  <r_i_glide_rewards>  (204) 
-2.25

>  <r_i_glide_evdw>  (204) 
-9.91242

>  <r_i_glide_ecoul>  (204) 
-4.6787

>  <r_i_glide_erotb>  (204) 
1.10731

>  <r_i_glide_esite>  (204) 
-0.0360121

>  <r_i_glide_emodel>  (204) 
-14.4411

>  <r_i_glide_energy>  (204) 
-14.5911

>  <r_i_glide_einternal>  (204) 
7.0237

>  <r_i_glide_intrahb_reward>  (204) 
-0

>  <i_i_glide_confnum>  (204) 
6

>  <i_i_glide_posenum>  (204) 
27

>  <r_i_glide_eff_state_penalty>  (204) 
0

>  <ligand_id>  (204) 
69

>  <original_smiles>  (204) 
CC12CN(CCC#N)CC1CO2

>  <smiles>  (204) 
[H]C([H])([H])C12OC([H])([H])C1([H])C([H])([H])N(C([H])([H])C([H])([H])C#N)C2([H])[H]

$$$$
69:0:2
     RDKit          3D

 26 27  0  0  1  0  0  0  0  0999 V2000
    3.3894   -1.4129    1.0949 C   0  0  0  0  0  0  0  0  0  0  0  0
    3.9534   -2.0735   -0.1534 C   0  0  2  0  0  0  0  0  0  0  0  0
    4.4774   -1.0902   -1.1896 C   0  0  0  0  0  0  0  0  0  0  0  0
    3.5558   -1.2300   -2.3157 N   0  0  0  0  0  0  0  0  0  0  0  0
    4.0355   -0.6689   -3.5623 C   0  0  0  0  0  0  0  0  0  0  0  0
    3.0733   -0.8471   -4.7324 C   0  0  0  0  0  0  0  0  0  0  0  0
    2.1827    0.2942   -4.9465 C   0  0  0  0  0  0  0  0  0  0  0  0
    1.4789    1.1885   -5.1202 N   0  0  0  0  0  0  0  0  0  0  0  0
    3.1988   -2.6458   -2.3697 C   0  0  0  0  0  0  0  0  0  0  0  0
    3.1299   -3.0751   -0.9297 C   0  0  1  0  0  0  0  0  0  0  0  0
    4.1043   -4.1001   -0.3809 C   0  0  0  0  0  0  0  0  0  0  0  0
    4.9396   -3.0723    0.1839 O   0  0  0  0  0  0  0  0  0  0  0  0
    2.5837   -0.7221    0.8422 H   0  0  0  0  0  0  0  0  0  0  0  0
    4.1576   -0.8517    1.6237 H   0  0  0  0  0  0  0  0  0  0  0  0
    2.9801   -2.1556    1.7821 H   0  0  0  0  0  0  0  0  0  0  0  0
    4.5050   -0.0716   -0.8120 H   0  0  0  0  0  0  0  0  0  0  0  0
    5.4872   -1.3766   -1.4873 H   0  0  0  0  0  0  0  0  0  0  0  0
    4.2380    0.3980   -3.4263 H   0  0  0  0  0  0  0  0  0  0  0  0
    4.9905   -1.1304   -3.8149 H   0  0  0  0  0  0  0  0  0  0  0  0
    3.6454   -0.9865   -5.6465 H   0  0  0  0  0  0  0  0  0  0  0  0
    2.4361   -1.7199   -4.6371 H   0  0  0  0  0  0  0  0  0  0  0  0
    2.2335   -2.8048   -2.8495 H   0  0  0  0  0  0  0  0  0  0  0  0
    3.9647   -3.2088   -2.9092 H   0  0  0  0  0  0  0  0  0  0  0  0
    2.1257   -3.1637   -0.5118 H   0  0  0  0  0  0  0  0  0  0  0  0
    3.6452   -4.7529    0.3668 H   0  0  0  0  0  0  0  0  0  0  0  0
    4.5946   -4.6862   -1.1663 H   0  0  0  0  0  0  0  0  0  0  0  0
  2  1  1  1
  1 13  1  0
  1 14  1  0
  1 15  1  0
  2 10  1  0
  2 12  1  0
  2  3  1  0
  3  4  1  0
  3 16  1  0
  3 17  1  0
  4  5  1  0
  4  9  1  0
  5  6  1  0
  5 18  1  0
  5 19  1  0
  6  7  1  0
  6 20  1  0
  6 21  1  0
  7  8  3  0
  9 10  1  0
  9 22  1  0
  9 23  1  0
 10 11  1  0
 10 24  1  1
 11 12  1  0
 11 25  1  0
 11 26  1  0
M  END
>  <i_m_ct_stereo_status>  (205) 
1

>  <s_m_source_file>  (205) 
/var/tmp/pbs.5076255.sched01/tmp2djcgp0g/84b3bpyveh.sdf

>  <i_m_source_file_index>  (205) 
29

>  <i_lp_mmshare_version>  (205) 
48012

>  <i_f3d_flags>  (205) 
0

>  <s_epik_input>  (205) 
W0NIM11bQ0BAXTEyW0NASF0oW0NIMl1PMilbQ0gyXU4oW0NIMl0xKVtDSDJdW0NIMl1DI04=

>  <s_epik_cmdline>  (205) 
J2VwaWtfcHl0aG9uJywgJy1waHQnLCAnMi4wJywgJy1waCcsICc3LjAnLCAnLXRuJywgJzgnLCAnLW1hJywgJzIwMCcsICctaW1hZScsICc8aW5maWxlLm1hZT4nLCAnLW9tYWUnLCAnPG91dGZpbGUubWFlPic=

>  <r_epik_Ionization_Penalty>  (205) 
0.0339717

>  <r_epik_Ionization_Penalty_Charging>  (205) 
0

>  <r_epik_Ionization_Penalty_Neutral>  (205) 
0.0339717

>  <r_epik_State_Penalty>  (205) 
0.0282354

>  <r_epik_Charging_Adjusted_Penalty>  (205) 
0.0282354

>  <i_epik_Tot_Q>  (205) 
0

>  <i_epik_Tot_abs_Q>  (205) 
0

>  <s_lp_Force_Field>  (205) 
OPLS3e

>  <r_lp_Energy>  (205) 
1.51058

>  <b_lp_Chiralities_Consistent>  (205) 
1

>  <s_lp_Variant>  (205) 
69:0-1

>  <s_i_glide_gridfile>  (205) 
pfpi4k_grid

>  <i_i_glide_lignum>  (205) 
29

>  <i_i_glide_rotatable_bonds>  (205) 
3

>  <r_i_docking_score>  (205) 
-2.15721

>  <r_i_glide_ligand_efficiency>  (205) 
-0.179767

>  <r_i_glide_ligand_efficiency_sa>  (205) 
-0.411564

>  <r_i_glide_ligand_efficiency_ln>  (205) 
-0.619015

>  <r_i_glide_gscore>  (205) 
-2.15721

>  <r_i_glide_lipo>  (205) 
-0.323595

>  <r_i_glide_hbond>  (205) 
0

>  <r_i_glide_metal>  (205) 
-0

>  <r_i_glide_rewards>  (205) 
-2.25

>  <r_i_glide_evdw>  (205) 
-11.4626

>  <r_i_glide_ecoul>  (205) 
-0.570678

>  <r_i_glide_erotb>  (205) 
1.10731

>  <r_i_glide_esite>  (205) 
-0.0321971

>  <r_i_glide_emodel>  (205) 
-13.2736

>  <r_i_glide_energy>  (205) 
-12.0333

>  <r_i_glide_einternal>  (205) 
2.78497

>  <r_i_glide_intrahb_reward>  (205) 
-0

>  <i_i_glide_confnum>  (205) 
5

>  <i_i_glide_posenum>  (205) 
2

>  <r_i_glide_eff_state_penalty>  (205) 
0

>  <ligand_id>  (205) 
69

>  <original_smiles>  (205) 
CC12CN(CCC#N)CC1CO2

>  <smiles>  (205) 
[H]C([H])([H])C12OC([H])([H])C1([H])C([H])([H])N(C([H])([H])C([H])([H])C#N)C2([H])[H]

$$$$
69:1:0
     RDKit          3D

 27 28  0  0  1  0  0  0  0  0999 V2000
    2.7775   -3.2460    1.9377 C   0  0  0  0  0  0  0  0  0  0  0  0
    3.4395   -3.2972    0.5620 C   0  0  2  0  0  0  0  0  0  0  0  0
    3.7331   -1.9421   -0.0686 C   0  0  0  0  0  0  0  0  0  0  0  0
    3.7605   -2.2226   -1.5262 N   0  0  2  0  0  0  0  0  0  0  0  0
    3.5730   -1.0421   -2.4047 C   0  0  0  0  0  0  0  0  0  0  0  0
    3.6963   -1.4022   -3.8948 C   0  0  0  0  0  0  0  0  0  0  0  0
    3.5356   -0.2474   -4.7887 C   0  0  0  0  0  0  0  0  0  0  0  0
    3.4145    0.6580   -5.4961 N   0  0  0  0  0  0  0  0  0  0  0  0
    2.7979   -3.3191   -1.7788 C   0  0  0  0  0  0  0  0  0  0  0  0
    2.8724   -4.1747   -0.5305 C   0  0  1  0  0  0  0  0  0  0  0  0
    4.0836   -5.0619   -0.2771 C   0  0  0  0  0  0  0  0  0  0  0  0
    4.6532   -4.0903    0.6360 O   0  0  0  0  0  0  0  0  0  0  0  0
    1.8229   -2.7167    1.9025 H   0  0  0  0  0  0  0  0  0  0  0  0
    3.4146   -2.7420    2.6641 H   0  0  0  0  0  0  0  0  0  0  0  0
    2.5805   -4.2493    2.3209 H   0  0  0  0  0  0  0  0  0  0  0  0
    2.9196   -1.2476    0.1485 H   0  0  0  0  0  0  0  0  0  0  0  0
    4.6632   -1.5044    0.2960 H   0  0  0  0  0  0  0  0  0  0  0  0
    2.5884   -0.6162   -2.2268 H   0  0  0  0  0  0  0  0  0  0  0  0
    4.3060   -0.2744   -2.1449 H   0  0  0  0  0  0  0  0  0  0  0  0
    4.6696   -1.8455   -4.1040 H   0  0  0  0  0  0  0  0  0  0  0  0
    2.9345   -2.1239   -4.1901 H   0  0  0  0  0  0  0  0  0  0  0  0
    1.7932   -2.9107   -1.8874 H   0  0  0  0  0  0  0  0  0  0  0  0
    3.0456   -3.8564   -2.6989 H   0  0  0  0  0  0  0  0  0  0  0  0
    1.9425   -4.6708   -0.2548 H   0  0  0  0  0  0  0  0  0  0  0  0
    3.8260   -6.0032    0.2110 H   0  0  0  0  0  0  0  0  0  0  0  0
    4.7010   -5.2291   -1.1593 H   0  0  0  0  0  0  0  0  0  0  0  0
    4.6790   -2.6193   -1.6962 H   0  0  0  0  0  0  0  0  0  0  0  0
  2  1  1  1
  1 13  1  0
  1 14  1  0
  1 15  1  0
  2 10  1  0
  2 12  1  0
  2  3  1  0
  3  4  1  0
  3 16  1  0
  3 17  1  0
  4  5  1  0
  4  9  1  0
  4 27  1  6
  5  6  1  0
  5 18  1  0
  5 19  1  0
  6  7  1  0
  6 20  1  0
  6 21  1  0
  7  8  3  0
  9 10  1  0
  9 22  1  0
  9 23  1  0
 10 11  1  0
 10 24  1  1
 11 12  1  0
 11 25  1  0
 11 26  1  0
M  CHG  1   4   1
M  END
>  <i_m_ct_stereo_status>  (206) 
1

>  <s_m_source_file>  (206) 
/var/tmp/pbs.5076255.sched01/tmp2djcgp0g/84b3bpyveh.sdf

>  <i_m_source_file_index>  (206) 
30

>  <i_lp_mmshare_version>  (206) 
48012

>  <i_f3d_flags>  (206) 
0

>  <s_epik_input>  (206) 
W0NIM11bQ0BAXTEyW0NASF0oW0NIMl1PMilbQ0gyXU4oW0NIMl0xKVtDSDJdW0NIMl1DI04=

>  <s_epik_cmdline>  (206) 
J2VwaWtfcHl0aG9uJywgJy1waHQnLCAnMi4wJywgJy1waCcsICc3LjAnLCAnLXRuJywgJzgnLCAnLW1hJywgJzIwMCcsICctaW1hZScsICc8aW5maWxlLm1hZT4nLCAnLW9tYWUnLCAnPG91dGZpbGUubWFlPic=

>  <r_epik_Ionization_Penalty>  (206) 
1.7107

>  <r_epik_Ionization_Penalty_Charging>  (206) 
1.7107

>  <r_epik_Ionization_Penalty_Neutral>  (206) 
1.45262e-06

>  <r_epik_State_Penalty>  (206) 
1.81744

>  <r_epik_Charging_Adjusted_Penalty>  (206) 
3.52814

>  <i_epik_Tot_Q>  (206) 
1

>  <i_epik_Tot_abs_Q>  (206) 
1

>  <s_lp_Force_Field>  (206) 
OPLS3e

>  <r_lp_Energy>  (206) 
9.29294

>  <b_lp_Chiralities_Consistent>  (206) 
1

>  <s_lp_Variant>  (206) 
69:0-2

>  <s_i_glide_gridfile>  (206) 
pfpi4k_grid

>  <i_i_glide_lignum>  (206) 
30

>  <i_i_glide_rotatable_bonds>  (206) 
3

>  <r_i_docking_score>  (206) 
-3.30052

>  <r_i_glide_ligand_efficiency>  (206) 
-0.275043

>  <r_i_glide_ligand_efficiency_sa>  (206) 
-0.629691

>  <r_i_glide_ligand_efficiency_ln>  (206) 
-0.947089

>  <r_i_glide_gscore>  (206) 
-3.30052

>  <r_i_glide_lipo>  (206) 
-0.21376

>  <r_i_glide_hbond>  (206) 
0

>  <r_i_glide_metal>  (206) 
-0

>  <r_i_glide_rewards>  (206) 
-2.64902

>  <r_i_glide_evdw>  (206) 
-14.9107

>  <r_i_glide_ecoul>  (206) 
-4.95774

>  <r_i_glide_erotb>  (206) 
1.09649

>  <r_i_glide_esite>  (206) 
-0.0450327

>  <r_i_glide_emodel>  (206) 
-24.1562

>  <r_i_glide_energy>  (206) 
-19.8684

>  <r_i_glide_einternal>  (206) 
0.233725

>  <r_i_glide_intrahb_reward>  (206) 
-0

>  <i_i_glide_confnum>  (206) 
3

>  <i_i_glide_posenum>  (206) 
29

>  <r_i_glide_eff_state_penalty>  (206) 
0

>  <ligand_id>  (206) 
69

>  <original_smiles>  (206) 
CC12CN(CCC#N)CC1CO2

>  <smiles>  (206) 
[H]C([H])([H])C12OC([H])([H])C1([H])C([H])([H])[N+]([H])(C([H])([H])C([H])([H])C#N)C2([H])[H]

$$$$
70:0:0
     RDKit          3D

 29 31  0  0  1  0  0  0  0  0999 V2000
    7.4874   -5.3871    1.6312 N   0  0  0  0  0  0  0  0  0  0  0  0
    6.9572   -4.6799    0.8828 C   0  0  0  0  0  0  0  0  0  0  0  0
    6.2644   -3.7990   -0.0733 C   0  0  2  0  0  0  0  0  0  0  0  0
    6.6553   -2.3456    0.1071 C   0  0  0  0  0  0  0  0  0  0  0  0
    7.8098   -1.8578   -0.3161 N   0  0  0  0  0  0  0  0  0  0  0  0
    6.0508   -1.5951    1.0755 O   0  0  0  0  0  0  0  0  0  0  0  0
    4.8581   -2.0121    1.6152 C   0  0  0  0  0  0  0  0  0  0  0  0
    4.1808   -3.1097    1.1582 C   0  0  0  0  0  0  0  0  0  0  0  0
    2.9555   -3.6166    1.8421 C   0  0  0  0  0  0  0  0  0  0  0  0
    2.3307   -4.6139    1.4639 O   0  0  0  0  0  0  0  0  0  0  0  0
    2.4427   -2.9256    3.1168 C   0  0  0  0  0  0  0  0  0  0  0  0
    2.5853   -1.4026    3.0783 C   0  0  0  0  0  0  0  0  0  0  0  0
    4.3265   -0.9774    2.9389 S   0  0  0  0  0  0  0  0  0  0  0  0
    4.7247   -3.9339   -0.0105 C   0  0  1  0  0  0  0  0  0  0  0  0
    4.0346   -3.5663   -1.3134 C   0  0  0  0  0  0  0  0  0  0  0  0
    2.6940   -3.3414   -1.5116 C   0  0  0  0  0  0  0  0  0  0  0  0
    2.3493   -3.0423   -2.8449 C   0  0  0  0  0  0  0  0  0  0  0  0
    3.4123   -3.0450   -3.6857 C   0  0  0  0  0  0  0  0  0  0  0  0
    4.8884   -3.4384   -2.8483 S   0  0  0  0  0  0  0  0  0  0  0  0
    8.3812   -2.6462   -0.6862 H   0  0  0  0  0  0  0  0  0  0  0  0
    1.3896   -3.1941    3.2436 H   0  0  0  0  0  0  0  0  0  0  0  0
    2.9882   -3.3517    3.9667 H   0  0  0  0  0  0  0  0  0  0  0  0
    2.0161   -0.9925    2.2472 H   0  0  0  0  0  0  0  0  0  0  0  0
    2.1792   -0.9725    3.9910 H   0  0  0  0  0  0  0  0  0  0  0  0
    4.5045   -4.9942    0.1646 H   0  0  0  0  0  0  0  0  0  0  0  0
    1.9191   -3.3721   -0.7588 H   0  0  0  0  0  0  0  0  0  0  0  0
    1.3207   -2.8580   -3.1301 H   0  0  0  0  0  0  0  0  0  0  0  0
    3.3925   -2.8458   -4.7383 H   0  0  0  0  0  0  0  0  0  0  0  0
    6.6693   -4.1559   -1.0162 H   0  0  0  0  0  0  0  0  0  0  0  0
  1  2  3  0
  2  3  1  0
  3 14  1  0
  3  4  1  0
  3 29  1  6
  4  5  1  0
  4  6  1  0
  5 20  1  0
  6  7  1  0
  7 13  1  0
  7  8  2  0
  8  9  1  0
  8 14  1  0
  9 10  2  0
  9 11  1  0
 11 12  1  0
 11 21  1  0
 11 22  1  0
 12 13  1  0
 12 23  1  0
 12 24  1  0
 14 15  1  0
 14 25  1  1
 15 19  1  0
 15 16  2  0
 16 17  1  0
 16 26  1  0
 17 18  2  0
 17 27  1  0
 18 19  1  0
 18 28  1  0
M  CHG  2   4   1   5  -1
M  END
>  <i_m_ct_stereo_status>  (207) 
1

>  <s_m_source_file>  (207) 
/var/tmp/pbs.5076255.sched01/tmp2djcgp0g/84b3bpyveh.sdf

>  <i_m_source_file_index>  (207) 
31

>  <i_lp_mmshare_version>  (207) 
48012

>  <i_f3d_flags>  (207) 
0

>  <s_epik_input>  (207) 
czFbY0hdW2NIXVtjSF1jMVtDQEBIXShbQ0BIXShDI04pL0MoTzIpPU4vW0hdKUMoPUMyMylDKD1PKVtDSDJdW0NIMl1TMw==

>  <s_epik_cmdline>  (207) 
J2VwaWtfcHl0aG9uJywgJy1waHQnLCAnMi4wJywgJy1waCcsICc3LjAnLCAnLXRuJywgJzgnLCAnLW1hJywgJzIwMCcsICctaW1hZScsICc8aW5maWxlLm1hZT4nLCAnLW9tYWUnLCAnPG91dGZpbGUubWFlPic=

>  <r_epik_Ionization_Penalty>  (207) 
1.1176e-07

>  <r_epik_Ionization_Penalty_Charging>  (207) 
0

>  <r_epik_Ionization_Penalty_Neutral>  (207) 
1.1176e-07

>  <r_epik_State_Penalty>  (207) 
0.45312

>  <r_epik_Charging_Adjusted_Penalty>  (207) 
0.45312

>  <i_epik_Tot_Q>  (207) 
0

>  <i_epik_Tot_abs_Q>  (207) 
2

>  <s_lp_Force_Field>  (207) 
OPLS3e

>  <r_lp_Energy>  (207) 
9.03757

>  <b_lp_Chiralities_Consistent>  (207) 
1

>  <s_lp_Variant>  (207) 
70:0-1

>  <s_i_glide_gridfile>  (207) 
pfpi4k_grid

>  <i_i_glide_lignum>  (207) 
31

>  <i_i_glide_rotatable_bonds>  (207) 
2

>  <r_i_docking_score>  (207) 
-4.30292

>  <r_i_glide_ligand_efficiency>  (207) 
-0.226469

>  <r_i_glide_ligand_efficiency_sa>  (207) 
-0.604311

>  <r_i_glide_ligand_efficiency_ln>  (207) 
-1.09088

>  <r_i_glide_gscore>  (207) 
-4.30292

>  <r_i_glide_lipo>  (207) 
-0.810286

>  <r_i_glide_hbond>  (207) 
-0.136664

>  <r_i_glide_metal>  (207) 
-0

>  <r_i_glide_rewards>  (207) 
-1.58899

>  <r_i_glide_evdw>  (207) 
-23.1751

>  <r_i_glide_ecoul>  (207) 
-5.48084

>  <r_i_glide_erotb>  (207) 
0.216151

>  <r_i_glide_esite>  (207) 
-0.00224885

>  <r_i_glide_emodel>  (207) 
-34.3622

>  <r_i_glide_energy>  (207) 
-28.6559

>  <r_i_glide_einternal>  (207) 
2.8335

>  <r_i_glide_intrahb_reward>  (207) 
-0

>  <i_i_glide_confnum>  (207) 
4

>  <i_i_glide_posenum>  (207) 
1

>  <r_i_glide_eff_state_penalty>  (207) 
0

>  <ligand_id>  (207) 
70

>  <original_smiles>  (207) 
N#CC1C(=N)OC2=C(C(=O)CCS2)C1c1cccs1

>  <smiles>  (207) 
[H][N-][C+]1OC2=C(C(=O)C([H])([H])C([H])([H])S2)C([H])(c2sc([H])c([H])c2[H])C1([H])C#N

$$$$
70:0:1
     RDKit          3D

 29 31  0  0  1  0  0  0  0  0999 V2000
    7.4682   -5.5400    0.8879 N   0  0  0  0  0  0  0  0  0  0  0  0
    7.0330   -4.6366    0.3101 C   0  0  0  0  0  0  0  0  0  0  0  0
    6.4626   -3.4998   -0.4357 C   0  0  2  0  0  0  0  0  0  0  0  0
    6.9409   -2.1808    0.1409 C   0  0  0  0  0  0  0  0  0  0  0  0
    8.2241   -1.8329    0.0779 N   0  0  0  0  0  0  0  0  0  0  0  0
    6.3313   -1.6898    1.2605 O   0  0  0  0  0  0  0  0  0  0  0  0
    5.0829   -2.1283    1.6086 C   0  0  0  0  0  0  0  0  0  0  0  0
    4.3730   -2.9967    0.8563 C   0  0  0  0  0  0  0  0  0  0  0  0
    3.0512   -3.5174    1.2998 C   0  0  0  0  0  0  0  0  0  0  0  0
    2.3691   -4.2535    0.5926 O   0  0  0  0  0  0  0  0  0  0  0  0
    2.5209   -3.1800    2.6981 C   0  0  0  0  0  0  0  0  0  0  0  0
    2.7673   -1.7249    3.0876 C   0  0  0  0  0  0  0  0  0  0  0  0
    4.5413   -1.4171    3.1396 S   0  0  0  0  0  0  0  0  0  0  0  0
    4.9252   -3.5460   -0.4615 C   0  0  1  0  0  0  0  0  0  0  0  0
    4.3635   -2.8072   -1.6495 C   0  0  0  0  0  0  0  0  0  0  0  0
    3.6552   -1.6281   -1.6446 C   0  0  0  0  0  0  0  0  0  0  0  0
    3.2172   -1.2282   -2.9295 C   0  0  0  0  0  0  0  0  0  0  0  0
    3.5760   -2.1098   -3.9081 C   0  0  0  0  0  0  0  0  0  0  0  0
    4.5094   -3.4412   -3.2757 S   0  0  0  0  0  0  0  0  0  0  0  0
    8.7036   -2.3955   -0.6335 H   0  0  0  0  0  0  0  0  0  0  0  0
    1.4490   -3.3820    2.7216 H   0  0  0  0  0  0  0  0  0  0  0  0
    2.9928   -3.8613    3.4113 H   0  0  0  0  0  0  0  0  0  0  0  0
    2.2864   -1.0479    2.3793 H   0  0  0  0  0  0  0  0  0  0  0  0
    2.3548   -1.5151    4.0759 H   0  0  0  0  0  0  0  0  0  0  0  0
    4.6302   -4.5923   -0.5616 H   0  0  0  0  0  0  0  0  0  0  0  0
    3.3857   -1.0529   -0.7706 H   0  0  0  0  0  0  0  0  0  0  0  0
    2.6211   -0.3401   -3.0772 H   0  0  0  0  0  0  0  0  0  0  0  0
    3.2974   -2.0437   -4.9476 H   0  0  0  0  0  0  0  0  0  0  0  0
    6.8543   -3.5887   -1.4514 H   0  0  0  0  0  0  0  0  0  0  0  0
  1  2  3  0
  2  3  1  0
  3 14  1  0
  3  4  1  0
  3 29  1  6
  4  5  1  0
  4  6  1  0
  5 20  1  0
  6  7  1  0
  7 13  1  0
  7  8  2  0
  8  9  1  0
  8 14  1  0
  9 10  2  0
  9 11  1  0
 11 12  1  0
 11 21  1  0
 11 22  1  0
 12 13  1  0
 12 23  1  0
 12 24  1  0
 14 15  1  0
 14 25  1  6
 15 19  1  0
 15 16  2  0
 16 17  1  0
 16 26  1  0
 17 18  2  0
 17 27  1  0
 18 19  1  0
 18 28  1  0
M  CHG  2   4   1   5  -1
M  END
>  <i_m_ct_stereo_status>  (208) 
1

>  <s_m_source_file>  (208) 
/var/tmp/pbs.5076255.sched01/tmp2djcgp0g/84b3bpyveh.sdf

>  <i_m_source_file_index>  (208) 
31

>  <i_lp_mmshare_version>  (208) 
48012

>  <i_f3d_flags>  (208) 
0

>  <s_epik_input>  (208) 
czFbY0hdW2NIXVtjSF1jMVtDQEBIXShbQ0BIXShDI04pL0MoTzIpPU4vW0hdKUMoPUMyMylDKD1PKVtDSDJdW0NIMl1TMw==

>  <s_epik_cmdline>  (208) 
J2VwaWtfcHl0aG9uJywgJy1waHQnLCAnMi4wJywgJy1waCcsICc3LjAnLCAnLXRuJywgJzgnLCAnLW1hJywgJzIwMCcsICctaW1hZScsICc8aW5maWxlLm1hZT4nLCAnLW9tYWUnLCAnPG91dGZpbGUubWFlPic=

>  <r_epik_Ionization_Penalty>  (208) 
1.1176e-07

>  <r_epik_Ionization_Penalty_Charging>  (208) 
0

>  <r_epik_Ionization_Penalty_Neutral>  (208) 
1.1176e-07

>  <r_epik_State_Penalty>  (208) 
0.45312

>  <r_epik_Charging_Adjusted_Penalty>  (208) 
0.45312

>  <i_epik_Tot_Q>  (208) 
0

>  <i_epik_Tot_abs_Q>  (208) 
2

>  <s_lp_Force_Field>  (208) 
OPLS3e

>  <r_lp_Energy>  (208) 
9.03757

>  <b_lp_Chiralities_Consistent>  (208) 
1

>  <s_lp_Variant>  (208) 
70:0-1

>  <s_i_glide_gridfile>  (208) 
pfpi4k_grid

>  <i_i_glide_lignum>  (208) 
31

>  <i_i_glide_rotatable_bonds>  (208) 
2

>  <r_i_docking_score>  (208) 
-3.65408

>  <r_i_glide_ligand_efficiency>  (208) 
-0.19232

>  <r_i_glide_ligand_efficiency_sa>  (208) 
-0.513187

>  <r_i_glide_ligand_efficiency_ln>  (208) 
-0.926387

>  <r_i_glide_gscore>  (208) 
-3.65408

>  <r_i_glide_lipo>  (208) 
-0.48188

>  <r_i_glide_hbond>  (208) 
-0.0652598

>  <r_i_glide_metal>  (208) 
-0

>  <r_i_glide_rewards>  (208) 
-1.59351

>  <r_i_glide_evdw>  (208) 
-25.9946

>  <r_i_glide_ecoul>  (208) 
-2.85243

>  <r_i_glide_erotb>  (208) 
0.216151

>  <r_i_glide_esite>  (208) 
-0.00198872

>  <r_i_glide_emodel>  (208) 
-35.3404

>  <r_i_glide_energy>  (208) 
-28.847

>  <r_i_glide_einternal>  (208) 
0.0396341

>  <r_i_glide_intrahb_reward>  (208) 
-0

>  <i_i_glide_confnum>  (208) 
2

>  <i_i_glide_posenum>  (208) 
13

>  <r_i_glide_eff_state_penalty>  (208) 
0

>  <ligand_id>  (208) 
70

>  <original_smiles>  (208) 
N#CC1C(=N)OC2=C(C(=O)CCS2)C1c1cccs1

>  <smiles>  (208) 
[H][N-][C+]1OC2=C(C(=O)C([H])([H])C([H])([H])S2)C([H])(c2sc([H])c([H])c2[H])C1([H])C#N

$$$$
70:0:2
     RDKit          3D

 29 31  0  0  1  0  0  0  0  0999 V2000
    3.0594    5.5630    7.5546 N   0  0  0  0  0  0  0  0  0  0  0  0
    2.0804    5.3900    6.9639 C   0  0  0  0  0  0  0  0  0  0  0  0
    0.8343    5.1630    6.2191 C   0  0  2  0  0  0  0  0  0  0  0  0
   -0.1787    6.2285    6.5974 C   0  0  0  0  0  0  0  0  0  0  0  0
   -0.2356    7.4291    6.0106 N   0  0  0  0  0  0  0  0  0  0  0  0
   -0.9186    6.1063    7.7378 O   0  0  0  0  0  0  0  0  0  0  0  0
   -1.0429    4.8755    8.3364 C   0  0  0  0  0  0  0  0  0  0  0  0
   -0.5145    3.7395    7.8165 C   0  0  0  0  0  0  0  0  0  0  0  0
   -0.6072    2.4432    8.5434 C   0  0  0  0  0  0  0  0  0  0  0  0
   -0.2434    1.3788    8.0542 O   0  0  0  0  0  0  0  0  0  0  0  0
   -1.1494    2.3834    9.9766 C   0  0  0  0  0  0  0  0  0  0  0  0
   -2.4186    3.2101   10.1319 C   0  0  0  0  0  0  0  0  0  0  0  0
   -2.0039    4.9422    9.8272 S   0  0  0  0  0  0  0  0  0  0  0  0
    0.2649    3.7557    6.4989 C   0  0  1  0  0  0  0  0  0  0  0  0
   -0.5704    3.2434    5.3632 C   0  0  0  0  0  0  0  0  0  0  0  0
   -1.9396    3.2334    5.2565 C   0  0  0  0  0  0  0  0  0  0  0  0
   -2.3958    2.6423    4.0497 C   0  0  0  0  0  0  0  0  0  0  0  0
   -1.3840    2.1920    3.2512 C   0  0  0  0  0  0  0  0  0  0  0  0
    0.1766    2.5039    3.9614 S   0  0  0  0  0  0  0  0  0  0  0  0
    0.6511    7.5666    5.5124 H   0  0  0  0  0  0  0  0  0  0  0  0
   -1.3697    1.3483   10.2199 H   0  0  0  0  0  0  0  0  0  0  0  0
   -0.3706    2.7162   10.6647 H   0  0  0  0  0  0  0  0  0  0  0  0
   -3.1962    2.8773    9.4403 H   0  0  0  0  0  0  0  0  0  0  0  0
   -2.8183    3.1297   11.1445 H   0  0  0  0  0  0  0  0  0  0  0  0
    1.1109    3.0787    6.5995 H   0  0  0  0  0  0  0  0  0  0  0  0
   -2.6313    3.6111    5.9959 H   0  0  0  0  0  0  0  0  0  0  0  0
   -3.4444    2.5634    3.8151 H   0  0  0  0  0  0  0  0  0  0  0  0
   -1.4627    1.7135    2.2830 H   0  0  0  0  0  0  0  0  0  0  0  0
    1.1057    5.2636    5.1657 H   0  0  0  0  0  0  0  0  0  0  0  0
  1  2  3  0
  2  3  1  0
  3 14  1  0
  3  4  1  0
  3 29  1  6
  4  5  1  0
  4  6  1  0
  5 20  1  0
  6  7  1  0
  7 13  1  0
  7  8  2  0
  8  9  1  0
  8 14  1  0
  9 10  2  0
  9 11  1  0
 11 12  1  0
 11 21  1  0
 11 22  1  0
 12 13  1  0
 12 23  1  0
 12 24  1  0
 14 15  1  0
 14 25  1  1
 15 19  1  0
 15 16  2  0
 16 17  1  0
 16 26  1  0
 17 18  2  0
 17 27  1  0
 18 19  1  0
 18 28  1  0
M  CHG  2   4   1   5  -1
M  END
>  <i_m_ct_stereo_status>  (209) 
1

>  <s_m_source_file>  (209) 
/var/tmp/pbs.5076255.sched01/tmp2djcgp0g/84b3bpyveh.sdf

>  <i_m_source_file_index>  (209) 
31

>  <i_lp_mmshare_version>  (209) 
48012

>  <i_f3d_flags>  (209) 
0

>  <s_epik_input>  (209) 
czFbY0hdW2NIXVtjSF1jMVtDQEBIXShbQ0BIXShDI04pL0MoTzIpPU4vW0hdKUMoPUMyMylDKD1PKVtDSDJdW0NIMl1TMw==

>  <s_epik_cmdline>  (209) 
J2VwaWtfcHl0aG9uJywgJy1waHQnLCAnMi4wJywgJy1waCcsICc3LjAnLCAnLXRuJywgJzgnLCAnLW1hJywgJzIwMCcsICctaW1hZScsICc8aW5maWxlLm1hZT4nLCAnLW9tYWUnLCAnPG91dGZpbGUubWFlPic=

>  <r_epik_Ionization_Penalty>  (209) 
1.1176e-07

>  <r_epik_Ionization_Penalty_Charging>  (209) 
0

>  <r_epik_Ionization_Penalty_Neutral>  (209) 
1.1176e-07

>  <r_epik_State_Penalty>  (209) 
0.45312

>  <r_epik_Charging_Adjusted_Penalty>  (209) 
0.45312

>  <i_epik_Tot_Q>  (209) 
0

>  <i_epik_Tot_abs_Q>  (209) 
2

>  <s_lp_Force_Field>  (209) 
OPLS3e

>  <r_lp_Energy>  (209) 
9.03757

>  <b_lp_Chiralities_Consistent>  (209) 
1

>  <s_lp_Variant>  (209) 
70:0-1

>  <s_i_glide_gridfile>  (209) 
pfpi4k_grid

>  <i_i_glide_lignum>  (209) 
31

>  <i_i_glide_rotatable_bonds>  (209) 
2

>  <r_i_docking_score>  (209) 
-3.077

>  <r_i_glide_ligand_efficiency>  (209) 
-0.161947

>  <r_i_glide_ligand_efficiency_sa>  (209) 
-0.43214

>  <r_i_glide_ligand_efficiency_ln>  (209) 
-0.780085

>  <r_i_glide_gscore>  (209) 
-3.077

>  <r_i_glide_lipo>  (209) 
0

>  <r_i_glide_hbond>  (209) 
-0.112835

>  <r_i_glide_metal>  (209) 
-0

>  <r_i_glide_rewards>  (209) 
-1.42935

>  <r_i_glide_evdw>  (209) 
-16.6677

>  <r_i_glide_ecoul>  (209) 
-6.07323

>  <r_i_glide_erotb>  (209) 
0.216151

>  <r_i_glide_esite>  (209) 
-0.00659679

>  <r_i_glide_emodel>  (209) 
-28.2883

>  <r_i_glide_energy>  (209) 
-22.741

>  <r_i_glide_einternal>  (209) 
-0.0213553

>  <r_i_glide_intrahb_reward>  (209) 
-0

>  <i_i_glide_confnum>  (209) 
2

>  <i_i_glide_posenum>  (209) 
22

>  <r_i_glide_eff_state_penalty>  (209) 
0

>  <ligand_id>  (209) 
70

>  <original_smiles>  (209) 
N#CC1C(=N)OC2=C(C(=O)CCS2)C1c1cccs1

>  <smiles>  (209) 
[H][N-][C+]1OC2=C(C(=O)C([H])([H])C([H])([H])S2)C([H])(c2sc([H])c([H])c2[H])C1([H])C#N

$$$$
70:1:0
     RDKit          3D

 28 30  0  0  1  0  0  0  0  0999 V2000
    7.1995   -5.6506    1.0662 N   0  0  0  0  0  0  0  0  0  0  0  0
    6.8214   -4.7317    0.4813 C   0  0  0  0  0  0  0  0  0  0  0  0
    6.3329   -3.5609   -0.2713 C   0  0  2  0  0  0  0  0  0  0  0  0
    7.0274   -2.3280    0.2571 C   0  0  0  0  0  0  0  0  0  0  0  0
    8.1599   -1.8570   -0.2633 N   0  0  0  0  0  0  0  0  0  0  0  0
    6.4831   -1.5677    1.2525 O   0  0  0  0  0  0  0  0  0  0  0  0
    5.2459   -1.8861    1.7460 C   0  0  0  0  0  0  0  0  0  0  0  0
    4.4064   -2.7486    1.1234 C   0  0  0  0  0  0  0  0  0  0  0  0
    3.0967   -3.1293    1.7107 C   0  0  0  0  0  0  0  0  0  0  0  0
    2.2861   -3.8321    1.1119 O   0  0  0  0  0  0  0  0  0  0  0  0
    2.7332   -2.6810    3.1323 C   0  0  0  0  0  0  0  0  0  0  0  0
    3.1203   -1.2288    3.4029 C   0  0  0  0  0  0  0  0  0  0  0  0
    4.9039   -1.0329    3.2609 S   0  0  0  0  0  0  0  0  0  0  0  0
    4.8005   -3.4331   -0.1890 C   0  0  1  0  0  0  0  0  0  0  0  0
    4.2316   -2.7324   -1.3958 C   0  0  0  0  0  0  0  0  0  0  0  0
    3.5020   -1.5699   -1.4259 C   0  0  0  0  0  0  0  0  0  0  0  0
    3.0877   -1.1960   -2.7289 C   0  0  0  0  0  0  0  0  0  0  0  0
    3.4811   -2.0846   -3.6859 C   0  0  0  0  0  0  0  0  0  0  0  0
    4.4168   -3.3860   -3.0099 S   0  0  0  0  0  0  0  0  0  0  0  0
    6.6456   -3.7351   -1.3024 H   0  0  0  0  0  0  0  0  0  0  0  0
    1.6587   -2.8072    3.2716 H   0  0  0  0  0  0  0  0  0  0  0  0
    3.2266   -3.3545    3.8365 H   0  0  0  0  0  0  0  0  0  0  0  0
    2.6199   -0.5642    2.6998 H   0  0  0  0  0  0  0  0  0  0  0  0
    2.8189   -0.9328    4.4071 H   0  0  0  0  0  0  0  0  0  0  0  0
    4.3993   -4.4487   -0.1947 H   0  0  0  0  0  0  0  0  0  0  0  0
    3.2122   -0.9850   -0.5646 H   0  0  0  0  0  0  0  0  0  0  0  0
    2.4890   -0.3141   -2.9015 H   0  0  0  0  0  0  0  0  0  0  0  0
    3.2446   -2.0480   -4.7346 H   0  0  0  0  0  0  0  0  0  0  0  0
  1  2  3  0
  2  3  1  0
  3 14  1  0
  3  4  1  0
  3 20  1  6
  4  5  2  3
  4  6  1  0
  6  7  1  0
  7 13  1  0
  7  8  2  0
  8  9  1  0
  8 14  1  0
  9 10  2  0
  9 11  1  0
 11 12  1  0
 11 21  1  0
 11 22  1  0
 12 13  1  0
 12 23  1  0
 12 24  1  0
 14 15  1  0
 14 25  1  1
 15 19  1  0
 15 16  2  0
 16 17  1  0
 16 26  1  0
 17 18  2  0
 17 27  1  0
 18 19  1  0
 18 28  1  0
M  CHG  1   5  -1
M  END
>  <i_m_ct_stereo_status>  (210) 
1

>  <s_m_source_file>  (210) 
/var/tmp/pbs.5076255.sched01/tmp2djcgp0g/84b3bpyveh.sdf

>  <i_m_source_file_index>  (210) 
32

>  <i_lp_mmshare_version>  (210) 
48012

>  <i_f3d_flags>  (210) 
0

>  <s_epik_input>  (210) 
czFbY0hdW2NIXVtjSF1jMVtDQEBIXShbQ0BIXShDI04pL0MoTzIpPU4vW0hdKUMoPUMyMylDKD1PKVtDSDJdW0NIMl1TMw==

>  <s_epik_cmdline>  (210) 
J2VwaWtfcHl0aG9uJywgJy1waHQnLCAnMi4wJywgJy1waCcsICc3LjAnLCAnLXRuJywgJzgnLCAnLW1hJywgJzIwMCcsICctaW1hZScsICc8aW5maWxlLm1hZT4nLCAnLW9tYWUnLCAnPG91dGZpbGUubWFlPic=

>  <r_epik_Ionization_Penalty>  (210) 
0.36348

>  <r_epik_Ionization_Penalty_Charging>  (210) 
0.363446

>  <r_epik_Ionization_Penalty_Neutral>  (210) 
3.45083e-05

>  <r_epik_State_Penalty>  (210) 
1.65177

>  <r_epik_Charging_Adjusted_Penalty>  (210) 
2.01522

>  <i_epik_Tot_Q>  (210) 
-1

>  <i_epik_Tot_abs_Q>  (210) 
1

>  <s_epik_Chemistry_Notes>  (210) 
This compound has an imine and may undergo hydrolysis.

>  <s_lp_Force_Field>  (210) 
OPLS3e

>  <r_lp_Energy>  (210) 
11.3534

>  <b_lp_Chiralities_Consistent>  (210) 
1

>  <s_lp_Variant>  (210) 
70:0-2

>  <s_i_glide_gridfile>  (210) 
pfpi4k_grid

>  <i_i_glide_lignum>  (210) 
32

>  <i_i_glide_rotatable_bonds>  (210) 
2

>  <r_i_docking_score>  (210) 
-3.4463

>  <r_i_glide_ligand_efficiency>  (210) 
-0.181384

>  <r_i_glide_ligand_efficiency_sa>  (210) 
-0.484006

>  <r_i_glide_ligand_efficiency_ln>  (210) 
-0.873712

>  <r_i_glide_gscore>  (210) 
-3.4463

>  <r_i_glide_lipo>  (210) 
-0.582124

>  <r_i_glide_hbond>  (210) 
-0.145783

>  <r_i_glide_metal>  (210) 
-0

>  <r_i_glide_rewards>  (210) 
-1.71277

>  <r_i_glide_evdw>  (210) 
-22.4136

>  <r_i_glide_ecoul>  (210) 
-0.667013

>  <r_i_glide_erotb>  (210) 
0.217465

>  <r_i_glide_esite>  (210) 
-0.00235981

>  <r_i_glide_emodel>  (210) 
-31.0867

>  <r_i_glide_energy>  (210) 
-23.0806

>  <r_i_glide_einternal>  (210) 
0.0907237

>  <r_i_glide_intrahb_reward>  (210) 
-0

>  <i_i_glide_confnum>  (210) 
1

>  <i_i_glide_posenum>  (210) 
11

>  <r_i_glide_eff_state_penalty>  (210) 
0

>  <ligand_id>  (210) 
70

>  <original_smiles>  (210) 
N#CC1C(=N)OC2=C(C(=O)CCS2)C1c1cccs1

>  <smiles>  (210) 
[H]c1sc(C2([H])C3=C(OC(=[N-])C2([H])C#N)SC([H])([H])C([H])([H])C3=O)c([H])c1[H]

$$$$
70:1:1
     RDKit          3D

 28 30  0  0  1  0  0  0  0  0999 V2000
    7.5324   -5.7432    1.4310 N   0  0  0  0  0  0  0  0  0  0  0  0
    7.0528   -4.9083    0.7909 C   0  0  0  0  0  0  0  0  0  0  0  0
    6.4429   -3.8519   -0.0297 C   0  0  2  0  0  0  0  0  0  0  0  0
    6.8851   -2.4982    0.4782 C   0  0  0  0  0  0  0  0  0  0  0  0
    7.9525   -1.8610   -0.0003 N   0  0  0  0  0  0  0  0  0  0  0  0
    6.1495   -1.8135    1.3983 O   0  0  0  0  0  0  0  0  0  0  0  0
    4.9449   -2.3189    1.8192 C   0  0  0  0  0  0  0  0  0  0  0  0
    4.2954   -3.3226    1.1734 C   0  0  0  0  0  0  0  0  0  0  0  0
    3.0299   -3.9095    1.7062 C   0  0  0  0  0  0  0  0  0  0  0  0
    2.3694   -4.7586    1.1010 O   0  0  0  0  0  0  0  0  0  0  0  0
    2.5084   -3.4763    3.0820 C   0  0  0  0  0  0  0  0  0  0  0  0
    2.6376   -1.9735    3.3123 C   0  0  0  0  0  0  0  0  0  0  0  0
    4.3726   -1.4989    3.2819 S   0  0  0  0  0  0  0  0  0  0  0  0
    4.8947   -3.9621   -0.0833 C   0  0  1  0  0  0  0  0  0  0  0  0
    4.2896   -3.3879   -1.3502 C   0  0  0  0  0  0  0  0  0  0  0  0
    2.9712   -3.0654   -1.5868 C   0  0  0  0  0  0  0  0  0  0  0  0
    2.7258   -2.5618   -2.8878 C   0  0  0  0  0  0  0  0  0  0  0  0
    3.8589   -2.4694   -3.6419 C   0  0  0  0  0  0  0  0  0  0  0  0
    5.2486   -3.0543   -2.7768 S   0  0  0  0  0  0  0  0  0  0  0  0
    6.8986   -4.0137   -1.0025 H   0  0  0  0  0  0  0  0  0  0  0  0
    1.4611   -3.7696    3.1557 H   0  0  0  0  0  0  0  0  0  0  0  0
    3.0543   -4.0398    3.8426 H   0  0  0  0  0  0  0  0  0  0  0  0
    2.0888   -1.4205    2.5530 H   0  0  0  0  0  0  0  0  0  0  0  0
    2.2220   -1.7010    4.2808 H   0  0  0  0  0  0  0  0  0  0  0  0
    4.6630   -5.0293   -0.0835 H   0  0  0  0  0  0  0  0  0  0  0  0
    2.1574   -3.1741   -0.8861 H   0  0  0  0  0  0  0  0  0  0  0  0
    1.7369   -2.2759   -3.2097 H   0  0  0  0  0  0  0  0  0  0  0  0
    3.9469   -2.0879   -4.6448 H   0  0  0  0  0  0  0  0  0  0  0  0
  1  2  3  0
  2  3  1  0
  3 14  1  0
  3  4  1  0
  3 20  1  6
  4  5  2  3
  4  6  1  0
  6  7  1  0
  7 13  1  0
  7  8  2  0
  8  9  1  0
  8 14  1  0
  9 10  2  0
  9 11  1  0
 11 12  1  0
 11 21  1  0
 11 22  1  0
 12 13  1  0
 12 23  1  0
 12 24  1  0
 14 15  1  0
 14 25  1  1
 15 19  1  0
 15 16  2  0
 16 17  1  0
 16 26  1  0
 17 18  2  0
 17 27  1  0
 18 19  1  0
 18 28  1  0
M  CHG  1   5  -1
M  END
>  <i_m_ct_stereo_status>  (211) 
1

>  <s_m_source_file>  (211) 
/var/tmp/pbs.5076255.sched01/tmp2djcgp0g/84b3bpyveh.sdf

>  <i_m_source_file_index>  (211) 
32

>  <i_lp_mmshare_version>  (211) 
48012

>  <i_f3d_flags>  (211) 
0

>  <s_epik_input>  (211) 
czFbY0hdW2NIXVtjSF1jMVtDQEBIXShbQ0BIXShDI04pL0MoTzIpPU4vW0hdKUMoPUMyMylDKD1PKVtDSDJdW0NIMl1TMw==

>  <s_epik_cmdline>  (211) 
J2VwaWtfcHl0aG9uJywgJy1waHQnLCAnMi4wJywgJy1waCcsICc3LjAnLCAnLXRuJywgJzgnLCAnLW1hJywgJzIwMCcsICctaW1hZScsICc8aW5maWxlLm1hZT4nLCAnLW9tYWUnLCAnPG91dGZpbGUubWFlPic=

>  <r_epik_Ionization_Penalty>  (211) 
0.36348

>  <r_epik_Ionization_Penalty_Charging>  (211) 
0.363446

>  <r_epik_Ionization_Penalty_Neutral>  (211) 
3.45083e-05

>  <r_epik_State_Penalty>  (211) 
1.65177

>  <r_epik_Charging_Adjusted_Penalty>  (211) 
2.01522

>  <i_epik_Tot_Q>  (211) 
-1

>  <i_epik_Tot_abs_Q>  (211) 
1

>  <s_epik_Chemistry_Notes>  (211) 
This compound has an imine and may undergo hydrolysis.

>  <s_lp_Force_Field>  (211) 
OPLS3e

>  <r_lp_Energy>  (211) 
11.3534

>  <b_lp_Chiralities_Consistent>  (211) 
1

>  <s_lp_Variant>  (211) 
70:0-2

>  <s_i_glide_gridfile>  (211) 
pfpi4k_grid

>  <i_i_glide_lignum>  (211) 
32

>  <i_i_glide_rotatable_bonds>  (211) 
2

>  <r_i_docking_score>  (211) 
-3.41523

>  <r_i_glide_ligand_efficiency>  (211) 
-0.179749

>  <r_i_glide_ligand_efficiency_sa>  (211) 
-0.479642

>  <r_i_glide_ligand_efficiency_ln>  (211) 
-0.865834

>  <r_i_glide_gscore>  (211) 
-3.41523

>  <r_i_glide_lipo>  (211) 
-0.640938

>  <r_i_glide_hbond>  (211) 
-0.124134

>  <r_i_glide_metal>  (211) 
-0

>  <r_i_glide_rewards>  (211) 
-1.73633

>  <r_i_glide_evdw>  (211) 
-24.9506

>  <r_i_glide_ecoul>  (211) 
0.785656

>  <r_i_glide_erotb>  (211) 
0.217465

>  <r_i_glide_esite>  (211) 
-0.0016083

>  <r_i_glide_emodel>  (211) 
-30.7271

>  <r_i_glide_energy>  (211) 
-24.165

>  <r_i_glide_einternal>  (211) 
2.6446

>  <r_i_glide_intrahb_reward>  (211) 
-0

>  <i_i_glide_confnum>  (211) 
1

>  <i_i_glide_posenum>  (211) 
4

>  <r_i_glide_eff_state_penalty>  (211) 
0

>  <ligand_id>  (211) 
70

>  <original_smiles>  (211) 
N#CC1C(=N)OC2=C(C(=O)CCS2)C1c1cccs1

>  <smiles>  (211) 
[H]c1sc(C2([H])C3=C(OC(=[N-])C2([H])C#N)SC([H])([H])C([H])([H])C3=O)c([H])c1[H]

$$$$
70:1:2
     RDKit          3D

 28 30  0  0  1  0  0  0  0  0999 V2000
    3.1477    1.6786    7.4929 N   0  0  0  0  0  0  0  0  0  0  0  0
    2.0238    1.5295    7.7383 C   0  0  0  0  0  0  0  0  0  0  0  0
    0.5985    1.3471    8.0517 C   0  0  2  0  0  0  0  0  0  0  0  0
    0.1664   -0.0018    7.5180 C   0  0  0  0  0  0  0  0  0  0  0  0
    0.2017   -1.1255    8.2295 N   0  0  0  0  0  0  0  0  0  0  0  0
   -0.4124   -0.1235    6.2857 O   0  0  0  0  0  0  0  0  0  0  0  0
   -0.6160    0.9960    5.5216 C   0  0  0  0  0  0  0  0  0  0  0  0
   -0.5664    2.2590    6.0263 C   0  0  0  0  0  0  0  0  0  0  0  0
   -0.7438    3.4546    5.1595 C   0  0  0  0  0  0  0  0  0  0  0  0
   -0.8624    4.5960    5.6032 O   0  0  0  0  0  0  0  0  0  0  0  0
   -0.7906    3.3193    3.6347 C   0  0  0  0  0  0  0  0  0  0  0  0
   -1.6586    2.1458    3.1936 C   0  0  0  0  0  0  0  0  0  0  0  0
   -0.9518    0.6219    3.8295 S   0  0  0  0  0  0  0  0  0  0  0  0
   -0.2733    2.5037    7.5060 C   0  0  1  0  0  0  0  0  0  0  0  0
   -1.5340    2.7316    8.3008 C   0  0  0  0  0  0  0  0  0  0  0  0
   -2.7974    2.9891    7.8360 C   0  0  0  0  0  0  0  0  0  0  0  0
   -3.7536    3.1909    8.8808 C   0  0  0  0  0  0  0  0  0  0  0  0
   -3.2119    3.0643   10.1228 C   0  0  0  0  0  0  0  0  0  0  0  0
   -1.5018    2.7703   10.0486 S   0  0  0  0  0  0  0  0  0  0  0  0
    0.5819    1.3074    9.1372 H   0  0  0  0  0  0  0  0  0  0  0  0
   -1.1915    4.2355    3.2017 H   0  0  0  0  0  0  0  0  0  0  0  0
    0.2277    3.2145    3.2534 H   0  0  0  0  0  0  0  0  0  0  0  0
   -2.6795    2.2561    3.5701 H   0  0  0  0  0  0  0  0  0  0  0  0
   -1.7070    2.0795    2.1076 H   0  0  0  0  0  0  0  0  0  0  0  0
    0.3303    3.4104    7.5950 H   0  0  0  0  0  0  0  0  0  0  0  0
   -3.0856    3.0610    6.7938 H   0  0  0  0  0  0  0  0  0  0  0  0
   -4.7988    3.3882    8.6739 H   0  0  0  0  0  0  0  0  0  0  0  0
   -3.6938    3.1190   11.0940 H   0  0  0  0  0  0  0  0  0  0  0  0
  1  2  3  0
  2  3  1  0
  3 14  1  0
  3  4  1  0
  3 20  1  1
  4  5  2  3
  4  6  1  0
  6  7  1  0
  7 13  1  0
  7  8  2  0
  8  9  1  0
  8 14  1  0
  9 10  2  0
  9 11  1  0
 11 12  1  0
 11 21  1  0
 11 22  1  0
 12 13  1  0
 12 23  1  0
 12 24  1  0
 14 15  1  0
 14 25  1  6
 15 19  1  0
 15 16  2  0
 16 17  1  0
 16 26  1  0
 17 18  2  0
 17 27  1  0
 18 19  1  0
 18 28  1  0
M  CHG  1   5  -1
M  END
>  <i_m_ct_stereo_status>  (212) 
1

>  <s_m_source_file>  (212) 
/var/tmp/pbs.5076255.sched01/tmp2djcgp0g/84b3bpyveh.sdf

>  <i_m_source_file_index>  (212) 
32

>  <i_lp_mmshare_version>  (212) 
48012

>  <i_f3d_flags>  (212) 
0

>  <s_epik_input>  (212) 
czFbY0hdW2NIXVtjSF1jMVtDQEBIXShbQ0BIXShDI04pL0MoTzIpPU4vW0hdKUMoPUMyMylDKD1PKVtDSDJdW0NIMl1TMw==

>  <s_epik_cmdline>  (212) 
J2VwaWtfcHl0aG9uJywgJy1waHQnLCAnMi4wJywgJy1waCcsICc3LjAnLCAnLXRuJywgJzgnLCAnLW1hJywgJzIwMCcsICctaW1hZScsICc8aW5maWxlLm1hZT4nLCAnLW9tYWUnLCAnPG91dGZpbGUubWFlPic=

>  <r_epik_Ionization_Penalty>  (212) 
0.36348

>  <r_epik_Ionization_Penalty_Charging>  (212) 
0.363446

>  <r_epik_Ionization_Penalty_Neutral>  (212) 
3.45083e-05

>  <r_epik_State_Penalty>  (212) 
1.65177

>  <r_epik_Charging_Adjusted_Penalty>  (212) 
2.01522

>  <i_epik_Tot_Q>  (212) 
-1

>  <i_epik_Tot_abs_Q>  (212) 
1

>  <s_epik_Chemistry_Notes>  (212) 
This compound has an imine and may undergo hydrolysis.

>  <s_lp_Force_Field>  (212) 
OPLS3e

>  <r_lp_Energy>  (212) 
11.3534

>  <b_lp_Chiralities_Consistent>  (212) 
1

>  <s_lp_Variant>  (212) 
70:0-2

>  <s_i_glide_gridfile>  (212) 
pfpi4k_grid

>  <i_i_glide_lignum>  (212) 
32

>  <i_i_glide_rotatable_bonds>  (212) 
2

>  <r_i_docking_score>  (212) 
-3.07795

>  <r_i_glide_ligand_efficiency>  (212) 
-0.161997

>  <r_i_glide_ligand_efficiency_sa>  (212) 
-0.432274

>  <r_i_glide_ligand_efficiency_ln>  (212) 
-0.780326

>  <r_i_glide_gscore>  (212) 
-3.07795

>  <r_i_glide_lipo>  (212) 
-0.150095

>  <r_i_glide_hbond>  (212) 
-0.0397832

>  <r_i_glide_metal>  (212) 
-0

>  <r_i_glide_rewards>  (212) 
-1.43622

>  <r_i_glide_evdw>  (212) 
-19.4523

>  <r_i_glide_ecoul>  (212) 
-4.31406

>  <r_i_glide_erotb>  (212) 
0.217465

>  <r_i_glide_esite>  (212) 
-0.0495943

>  <r_i_glide_emodel>  (212) 
-30.3153

>  <r_i_glide_energy>  (212) 
-23.7663

>  <r_i_glide_einternal>  (212) 
1.00499

>  <r_i_glide_intrahb_reward>  (212) 
-0

>  <i_i_glide_confnum>  (212) 
3

>  <i_i_glide_posenum>  (212) 
1

>  <r_i_glide_eff_state_penalty>  (212) 
0

>  <ligand_id>  (212) 
70

>  <original_smiles>  (212) 
N#CC1C(=N)OC2=C(C(=O)CCS2)C1c1cccs1

>  <smiles>  (212) 
[H]c1sc(C2([H])C3=C(OC(=[N-])C2([H])C#N)SC([H])([H])C([H])([H])C3=O)c([H])c1[H]

$$$$
71:0:0
     RDKit          3D

 45 48  0  0  1  0  0  0  0  0999 V2000
    2.5622    0.3208    1.9021 C   0  0  0  0  0  0  0  0  0  0  0  0
    1.5195   -0.7125    2.3356 C   0  0  0  0  0  0  0  0  0  0  0  0
    0.4994   -0.3642    2.8840 O   0  0  0  0  0  0  0  0  0  0  0  0
    1.8427   -2.0237    2.0821 O   0  0  0  0  0  0  0  0  0  0  0  0
    3.0974   -2.4778    1.5408 C   0  0  2  0  0  0  0  0  0  0  0  0
    3.0430   -3.8693    0.9254 C   0  0  1  0  0  0  0  0  0  0  0  0
    4.3860   -3.8860    0.0999 C   0  0  0  0  0  0  0  0  0  0  0  0
    4.3643   -3.0773   -0.9728 C   0  0  0  0  0  0  0  0  0  0  0  0
    3.2113   -3.0344   -1.9751 C   0  0  0  0  0  0  0  0  0  0  0  0
    5.2856   -1.8284   -0.9762 C   0  0  1  0  0  0  0  0  0  0  0  0
    4.7103   -0.7169   -1.6374 O   0  0  0  0  0  0  0  0  0  0  0  0
    5.8139   -1.3894    0.4600 C   0  0  1  0  0  0  0  0  0  0  0  0
    5.4065   -0.1028    0.8398 O   0  0  0  0  0  0  0  0  0  0  0  0
    5.6708   -2.4401    1.6208 C   0  0  2  0  0  0  0  0  0  0  0  0
    5.7055   -3.7915    0.9107 C   0  0  2  0  0  0  0  0  0  0  0  0
    6.9786   -4.1410    0.0978 C   0  0  0  0  0  0  0  0  0  0  0  0
    5.7484   -4.6259    2.1136 C   0  0  0  0  0  0  0  0  0  0  0  0
    4.9857   -3.7790    2.9430 O   0  0  0  0  0  0  0  0  0  0  0  0
    4.3295   -2.5339    2.5015 C   0  0  1  0  0  0  0  0  0  0  0  0
    3.6237   -3.1735    3.7700 C   0  0  0  0  0  0  0  0  0  0  0  0
    2.7050   -4.2686    3.4018 O   0  0  0  0  0  0  0  0  0  0  0  0
    2.7169   -4.8920    2.0992 C   0  0  1  0  0  0  0  0  0  0  0  0
    1.4719   -5.5323    1.8637 O   0  0  0  0  0  0  0  0  0  0  0  0
    3.4734    0.0857    2.4468 H   0  0  0  0  0  0  0  0  0  0  0  0
    2.2939    1.3519    2.1391 H   0  0  0  0  0  0  0  0  0  0  0  0
    2.7390    0.2603    0.8279 H   0  0  0  0  0  0  0  0  0  0  0  0
    3.3070   -1.7863    0.7392 H   0  0  0  0  0  0  0  0  0  0  0  0
    2.2018   -3.9066    0.2317 H   0  0  0  0  0  0  0  0  0  0  0  0
    3.5992   -2.9794   -2.9964 H   0  0  0  0  0  0  0  0  0  0  0  0
    2.5604   -2.1779   -1.8115 H   0  0  0  0  0  0  0  0  0  0  0  0
    2.5892   -3.9339   -1.9220 H   0  0  0  0  0  0  0  0  0  0  0  0
    6.1310   -2.0744   -1.6106 H   0  0  0  0  0  0  0  0  0  0  0  0
    3.8467   -0.5580   -1.2755 H   0  0  0  0  0  0  0  0  0  0  0  0
    6.8918   -1.2602    0.3013 H   0  0  0  0  0  0  0  0  0  0  0  0
    5.3337    0.4046    0.0345 H   0  0  0  0  0  0  0  0  0  0  0  0
    6.5323   -2.2813    2.2741 H   0  0  0  0  0  0  0  0  0  0  0  0
    7.8700   -3.6886    0.5269 H   0  0  0  0  0  0  0  0  0  0  0  0
    6.9475   -3.8546   -0.9496 H   0  0  0  0  0  0  0  0  0  0  0  0
    7.1205   -5.2220    0.0969 H   0  0  0  0  0  0  0  0  0  0  0  0
    5.4000   -5.6578    2.0004 H   0  0  0  0  0  0  0  0  0  0  0  0
    6.7614   -4.6751    2.5307 H   0  0  0  0  0  0  0  0  0  0  0  0
    4.1803   -3.3786    4.7135 H   0  0  0  0  0  0  0  0  0  0  0  0
    2.9827   -2.3985    4.1898 H   0  0  0  0  0  0  0  0  0  0  0  0
    3.4108   -5.7342    2.0970 H   0  0  0  0  0  0  0  0  0  0  0  0
    1.4309   -6.2772    2.4360 H   0  0  0  0  0  0  0  0  0  0  0  0
  1  2  1  0
  1 24  1  0
  1 25  1  0
  1 26  1  0
  2  3  2  0
  2  4  1  0
  4  5  1  0
  5 19  1  0
  5  6  1  0
  5 27  1  6
  6 22  1  0
  6  7  1  0
  6 28  1  6
  7 15  1  0
  7  8  2  0
  8  9  1  0
  8 10  1  0
  9 29  1  0
  9 30  1  0
  9 31  1  0
 10 11  1  0
 10 12  1  0
 10 32  1  6
 11 33  1  0
 12 13  1  0
 12 14  1  0
 12 34  1  6
 13 35  1  0
 14 19  1  0
 14 15  1  0
 14 36  1  1
 15 16  1  6
 15 17  1  0
 16 37  1  0
 16 38  1  0
 16 39  1  0
 17 18  1  0
 17 40  1  0
 17 41  1  0
 19 18  1  6
 19 20  1  0
 20 21  1  0
 20 42  1  0
 20 43  1  0
 21 22  1  0
 22 23  1  0
 22 44  1  1
 23 45  1  0
M  END
>  <i_m_ct_stereo_status>  (213) 
1

>  <s_m_source_file>  (213) 
/var/tmp/pbs.5076255.sched01/tmp2djcgp0g/84b3bpyveh.sdf

>  <i_m_source_file_index>  (213) 
33

>  <i_lp_mmshare_version>  (213) 
48012

>  <i_f3d_flags>  (213) 
0

>  <s_epik_input>  (213) 
W0NIM11DKD1PKU9bQ0BASF0xW0NASF0oW0NASF0oW09IXSlPW0NIMl0yKUMoW0NAXShbQ0BASF0zW0NAXTEyNCkoW0NIM10pW0NIMl1PNCk9QyhbQ0gzXSlbQ0BASF0oW09IXSlbQ0BIXTNbT0hd

>  <s_epik_cmdline>  (213) 
J2VwaWtfcHl0aG9uJywgJy1waHQnLCAnMi4wJywgJy1waCcsICc3LjAnLCAnLXRuJywgJzgnLCAnLW1hJywgJzIwMCcsICctaW1hZScsICc8aW5maWxlLm1hZT4nLCAnLW9tYWUnLCAnPG91dGZpbGUubWFlPic=

>  <r_lp_tautomer_probability>  (213) 
1

>  <r_epik_Ionization_Penalty>  (213) 
2.11835e-06

>  <r_epik_Ionization_Penalty_Charging>  (213) 
0

>  <r_epik_Ionization_Penalty_Neutral>  (213) 
2.11835e-06

>  <r_epik_State_Penalty>  (213) 
-0

>  <r_epik_Charging_Adjusted_Penalty>  (213) 
0

>  <i_epik_Tot_Q>  (213) 
0

>  <i_epik_Tot_abs_Q>  (213) 
0

>  <s_epik_Chemistry_Notes>  (213) 
This compound has an ester and may undergo hydrolysis at high or low pH. This compound contains an acetal/aminal-like group ( X-CH(R)-Y where X, Y are N, S, or O) that may be acid/base labile, releasing an aldehyde.

>  <s_lp_Force_Field>  (213) 
OPLS3e

>  <r_lp_Energy>  (213) 
191.109

>  <b_lp_Chiralities_Consistent>  (213) 
1

>  <s_lp_Variant>  (213) 
71:0-1

>  <s_i_glide_gridfile>  (213) 
pfpi4k_grid

>  <i_i_glide_lignum>  (213) 
33

>  <i_i_glide_rotatable_bonds>  (213) 
5

>  <r_i_docking_score>  (213) 
-2.93707

>  <r_i_glide_ligand_efficiency>  (213) 
-0.127699

>  <r_i_glide_ligand_efficiency_sa>  (213) 
-0.363158

>  <r_i_glide_ligand_efficiency_ln>  (213) 
-0.71021

>  <r_i_glide_gscore>  (213) 
-2.93707

>  <r_i_glide_lipo>  (213) 
-0.412003

>  <r_i_glide_hbond>  (213) 
0

>  <r_i_glide_metal>  (213) 
-0

>  <r_i_glide_rewards>  (213) 
-1.18403

>  <r_i_glide_evdw>  (213) 
-22.1558

>  <r_i_glide_ecoul>  (213) 
-2.40062

>  <r_i_glide_erotb>  (213) 
0.17609

>  <r_i_glide_esite>  (213) 
-0.0492407

>  <r_i_glide_emodel>  (213) 
-25.9013

>  <r_i_glide_energy>  (213) 
-24.5564

>  <r_i_glide_einternal>  (213) 
6.10878

>  <r_i_glide_intrahb_reward>  (213) 
-0

>  <i_i_glide_confnum>  (213) 
3

>  <i_i_glide_posenum>  (213) 
28

>  <r_i_glide_eff_state_penalty>  (213) 
0

>  <ligand_id>  (213) 
71

>  <original_smiles>  (213) 
CC(=O)OC1C2C3=C(C)C(O)C(O)C4C3(C)COC14COC2O

>  <smiles>  (213) 
[H]OC1([H])OC([H])([H])C23OC([H])([H])C4(C([H])([H])[H])C(=C(C([H])([H])[H])C([H])(O[H])C([H])(O[H])C24[H])C1([H])C3([H])OC(=O)C([H])([H])[H]

$$$$
71:0:1
     RDKit          3D

 45 48  0  0  1  0  0  0  0  0999 V2000
    2.5681   -0.8690    2.2158 C   0  0  0  0  0  0  0  0  0  0  0  0
    1.9638   -2.2501    2.4149 C   0  0  0  0  0  0  0  0  0  0  0  0
    0.9919   -2.3976    3.1478 O   0  0  0  0  0  0  0  0  0  0  0  0
    2.5697   -3.2884    1.7520 O   0  0  0  0  0  0  0  0  0  0  0  0
    3.8167   -3.1808    1.0347 C   0  0  2  0  0  0  0  0  0  0  0  0
    4.1577   -4.3981    0.1818 C   0  0  1  0  0  0  0  0  0  0  0  0
    5.3291   -3.8447   -0.7127 C   0  0  0  0  0  0  0  0  0  0  0  0
    4.9009   -2.9506   -1.6432 C   0  0  0  0  0  0  0  0  0  0  0  0
    3.6971   -3.1578   -2.5437 C   0  0  0  0  0  0  0  0  0  0  0  0
    5.3161   -1.4832   -1.4700 C   0  0  1  0  0  0  0  0  0  0  0  0
    4.3170   -0.6251   -1.9604 O   0  0  0  0  0  0  0  0  0  0  0  0
    5.7909   -1.0855   -0.0094 C   0  0  1  0  0  0  0  0  0  0  0  0
    4.9766   -0.1349    0.6040 O   0  0  0  0  0  0  0  0  0  0  0  0
    6.2001   -2.2528    0.9514 C   0  0  2  0  0  0  0  0  0  0  0  0
    6.6240   -3.3905    0.0053 C   0  0  2  0  0  0  0  0  0  0  0  0
    7.8358   -3.1282   -0.9434 C   0  0  0  0  0  0  0  0  0  0  0  0
    7.1057   -4.3113    1.0391 C   0  0  0  0  0  0  0  0  0  0  0  0
    6.1797   -3.9422    2.0259 O   0  0  0  0  0  0  0  0  0  0  0  0
    5.1006   -2.9456    1.8803 C   0  0  1  0  0  0  0  0  0  0  0  0
    4.8324   -3.9616    3.0681 C   0  0  0  0  0  0  0  0  0  0  0  0
    4.2821   -5.2445    2.5692 O   0  0  0  0  0  0  0  0  0  0  0  0
    4.3441   -5.6334    1.1765 C   0  0  1  0  0  0  0  0  0  0  0  0
    3.3517   -6.5809    0.8799 O   0  0  0  0  0  0  0  0  0  0  0  0
    3.6020   -0.9013    2.5526 H   0  0  0  0  0  0  0  0  0  0  0  0
    2.0758   -0.0855    2.7956 H   0  0  0  0  0  0  0  0  0  0  0  0
    2.5176   -0.5838    1.1642 H   0  0  0  0  0  0  0  0  0  0  0  0
    3.6452   -2.3460    0.3663 H   0  0  0  0  0  0  0  0  0  0  0  0
    3.3042   -4.6323   -0.4525 H   0  0  0  0  0  0  0  0  0  0  0  0
    3.9083   -2.7923   -3.5522 H   0  0  0  0  0  0  0  0  0  0  0  0
    2.7995   -2.6532   -2.1719 H   0  0  0  0  0  0  0  0  0  0  0  0
    3.5085   -4.2228   -2.6197 H   0  0  0  0  0  0  0  0  0  0  0  0
    6.1297   -1.3335   -2.1701 H   0  0  0  0  0  0  0  0  0  0  0  0
    3.5222   -0.7536   -1.4483 H   0  0  0  0  0  0  0  0  0  0  0  0
    6.7057   -0.5166   -0.1660 H   0  0  0  0  0  0  0  0  0  0  0  0
    4.9164    0.6103   -0.0092 H   0  0  0  0  0  0  0  0  0  0  0  0
    7.0190   -1.8827    1.5761 H   0  0  0  0  0  0  0  0  0  0  0  0
    8.5612   -2.4423   -0.5089 H   0  0  0  0  0  0  0  0  0  0  0  0
    7.5898   -2.7689   -1.9395 H   0  0  0  0  0  0  0  0  0  0  0  0
    8.3572   -4.0677   -1.1176 H   0  0  0  0  0  0  0  0  0  0  0  0
    7.1263   -5.3687    0.7620 H   0  0  0  0  0  0  0  0  0  0  0  0
    8.0982   -4.0302    1.3999 H   0  0  0  0  0  0  0  0  0  0  0  0
    5.5564   -4.0820    3.9108 H   0  0  0  0  0  0  0  0  0  0  0  0
    4.0343   -3.5307    3.6749 H   0  0  0  0  0  0  0  0  0  0  0  0
    5.2792   -6.1598    0.9850 H   0  0  0  0  0  0  0  0  0  0  0  0
    3.3900   -6.7476   -0.0369 H   0  0  0  0  0  0  0  0  0  0  0  0
  1  2  1  0
  1 24  1  0
  1 25  1  0
  1 26  1  0
  2  3  2  0
  2  4  1  0
  4  5  1  0
  5 19  1  0
  5  6  1  0
  5 27  1  6
  6 22  1  0
  6  7  1  0
  6 28  1  6
  7 15  1  0
  7  8  2  0
  8  9  1  0
  8 10  1  0
  9 29  1  0
  9 30  1  0
  9 31  1  0
 10 11  1  0
 10 12  1  0
 10 32  1  6
 11 33  1  0
 12 13  1  0
 12 14  1  0
 12 34  1  6
 13 35  1  0
 14 19  1  0
 14 15  1  0
 14 36  1  1
 15 16  1  6
 15 17  1  0
 16 37  1  0
 16 38  1  0
 16 39  1  0
 17 18  1  0
 17 40  1  0
 17 41  1  0
 19 18  1  6
 19 20  1  0
 20 21  1  0
 20 42  1  0
 20 43  1  0
 21 22  1  0
 22 23  1  0
 22 44  1  1
 23 45  1  0
M  END
>  <i_m_ct_stereo_status>  (214) 
1

>  <s_m_source_file>  (214) 
/var/tmp/pbs.5076255.sched01/tmp2djcgp0g/84b3bpyveh.sdf

>  <i_m_source_file_index>  (214) 
33

>  <i_lp_mmshare_version>  (214) 
48012

>  <i_f3d_flags>  (214) 
0

>  <s_epik_input>  (214) 
W0NIM11DKD1PKU9bQ0BASF0xW0NASF0oW0NASF0oW09IXSlPW0NIMl0yKUMoW0NAXShbQ0BASF0zW0NAXTEyNCkoW0NIM10pW0NIMl1PNCk9QyhbQ0gzXSlbQ0BASF0oW09IXSlbQ0BIXTNbT0hd

>  <s_epik_cmdline>  (214) 
J2VwaWtfcHl0aG9uJywgJy1waHQnLCAnMi4wJywgJy1waCcsICc3LjAnLCAnLXRuJywgJzgnLCAnLW1hJywgJzIwMCcsICctaW1hZScsICc8aW5maWxlLm1hZT4nLCAnLW9tYWUnLCAnPG91dGZpbGUubWFlPic=

>  <r_lp_tautomer_probability>  (214) 
1

>  <r_epik_Ionization_Penalty>  (214) 
2.11835e-06

>  <r_epik_Ionization_Penalty_Charging>  (214) 
0

>  <r_epik_Ionization_Penalty_Neutral>  (214) 
2.11835e-06

>  <r_epik_State_Penalty>  (214) 
-0

>  <r_epik_Charging_Adjusted_Penalty>  (214) 
0

>  <i_epik_Tot_Q>  (214) 
0

>  <i_epik_Tot_abs_Q>  (214) 
0

>  <s_epik_Chemistry_Notes>  (214) 
This compound has an ester and may undergo hydrolysis at high or low pH. This compound contains an acetal/aminal-like group ( X-CH(R)-Y where X, Y are N, S, or O) that may be acid/base labile, releasing an aldehyde.

>  <s_lp_Force_Field>  (214) 
OPLS3e

>  <r_lp_Energy>  (214) 
191.109

>  <b_lp_Chiralities_Consistent>  (214) 
1

>  <s_lp_Variant>  (214) 
71:0-1

>  <s_i_glide_gridfile>  (214) 
pfpi4k_grid

>  <i_i_glide_lignum>  (214) 
33

>  <i_i_glide_rotatable_bonds>  (214) 
5

>  <r_i_docking_score>  (214) 
-2.91167

>  <r_i_glide_ligand_efficiency>  (214) 
-0.126594

>  <r_i_glide_ligand_efficiency_sa>  (214) 
-0.360017

>  <r_i_glide_ligand_efficiency_ln>  (214) 
-0.704067

>  <r_i_glide_gscore>  (214) 
-2.91167

>  <r_i_glide_lipo>  (214) 
-0.488113

>  <r_i_glide_hbond>  (214) 
0

>  <r_i_glide_metal>  (214) 
-0

>  <r_i_glide_rewards>  (214) 
-1.25218

>  <r_i_glide_evdw>  (214) 
-22.3774

>  <r_i_glide_ecoul>  (214) 
-1.44278

>  <r_i_glide_erotb>  (214) 
0.17609

>  <r_i_glide_esite>  (214) 
-0.0121752

>  <r_i_glide_emodel>  (214) 
-24.1552

>  <r_i_glide_energy>  (214) 
-23.8201

>  <r_i_glide_einternal>  (214) 
8.12375

>  <r_i_glide_intrahb_reward>  (214) 
-0

>  <i_i_glide_confnum>  (214) 
3

>  <i_i_glide_posenum>  (214) 
31

>  <r_i_glide_eff_state_penalty>  (214) 
0

>  <ligand_id>  (214) 
71

>  <original_smiles>  (214) 
CC(=O)OC1C2C3=C(C)C(O)C(O)C4C3(C)COC14COC2O

>  <smiles>  (214) 
[H]OC1([H])OC([H])([H])C23OC([H])([H])C4(C([H])([H])[H])C(=C(C([H])([H])[H])C([H])(O[H])C([H])(O[H])C24[H])C1([H])C3([H])OC(=O)C([H])([H])[H]

$$$$
71:0:2
     RDKit          3D

 45 48  0  0  1  0  0  0  0  0999 V2000
    2.3898   -0.7891    2.1052 C   0  0  0  0  0  0  0  0  0  0  0  0
    1.8830   -2.1910    2.4535 C   0  0  0  0  0  0  0  0  0  0  0  0
    1.0468   -2.3576    3.3344 O   0  0  0  0  0  0  0  0  0  0  0  0
    2.4227   -3.2180    1.7164 O   0  0  0  0  0  0  0  0  0  0  0  0
    3.5037   -3.0789    0.7783 C   0  0  2  0  0  0  0  0  0  0  0  0
    3.7217   -4.3112   -0.0904 C   0  0  1  0  0  0  0  0  0  0  0  0
    4.6729   -3.7789   -1.2235 C   0  0  0  0  0  0  0  0  0  0  0  0
    4.0458   -2.9609   -2.1207 C   0  0  0  0  0  0  0  0  0  0  0  0
    2.6593   -3.2197   -2.7263 C   0  0  0  0  0  0  0  0  0  0  0  0
    4.4126   -1.4628   -2.0802 C   0  0  1  0  0  0  0  0  0  0  0  0
    3.3181   -0.6538   -2.4373 O   0  0  0  0  0  0  0  0  0  0  0  0
    5.1052   -0.9952   -0.7345 C   0  0  1  0  0  0  0  0  0  0  0  0
    4.3814   -0.1255    0.0871 O   0  0  0  0  0  0  0  0  0  0  0  0
    5.7807   -2.0836    0.1861 C   0  0  2  0  0  0  0  0  0  0  0  0
    6.0553   -3.2416   -0.7638 C   0  0  2  0  0  0  0  0  0  0  0  0
    7.0374   -2.9379   -1.9131 C   0  0  0  0  0  0  0  0  0  0  0  0
    6.7835   -4.0779    0.1921 C   0  0  0  0  0  0  0  0  0  0  0  0
    6.0517   -3.6895    1.3301 O   0  0  0  0  0  0  0  0  0  0  0  0
    4.9146   -2.7578    1.3561 C   0  0  1  0  0  0  0  0  0  0  0  0
    4.9201   -3.7586    2.5949 C   0  0  0  0  0  0  0  0  0  0  0  0
    4.3425   -5.0766    2.2408 O   0  0  0  0  0  0  0  0  0  0  0  0
    4.1528   -5.4937    0.8700 C   0  0  1  0  0  0  0  0  0  0  0  0
    3.1614   -6.4794    0.8129 O   0  0  0  0  0  0  0  0  0  0  0  0
    3.4689   -0.7756    2.2258 H   0  0  0  0  0  0  0  0  0  0  0  0
    1.9883   -0.0030    2.7479 H   0  0  0  0  0  0  0  0  0  0  0  0
    2.1081   -0.5463    1.0791 H   0  0  0  0  0  0  0  0  0  0  0  0
    3.1613   -2.2889    0.1215 H   0  0  0  0  0  0  0  0  0  0  0  0
    2.7770   -4.5854   -0.5586 H   0  0  0  0  0  0  0  0  0  0  0  0
    2.6736   -2.8439   -3.7579 H   0  0  0  0  0  0  0  0  0  0  0  0
    1.8693   -2.6492   -2.2154 H   0  0  0  0  0  0  0  0  0  0  0  0
    2.3436   -4.2427   -2.7348 H   0  0  0  0  0  0  0  0  0  0  0  0
    5.1097   -1.2665   -2.8817 H   0  0  0  0  0  0  0  0  0  0  0  0
    2.6438   -0.7598   -1.7766 H   0  0  0  0  0  0  0  0  0  0  0  0
    5.9169   -0.3469   -1.0332 H   0  0  0  0  0  0  0  0  0  0  0  0
    3.5647   -0.5112    0.3530 H   0  0  0  0  0  0  0  0  0  0  0  0
    6.6940   -1.6416    0.6429 H   0  0  0  0  0  0  0  0  0  0  0  0
    7.8078   -2.2226   -1.6644 H   0  0  0  0  0  0  0  0  0  0  0  0
    6.5777   -2.6771   -2.8489 H   0  0  0  0  0  0  0  0  0  0  0  0
    7.5839   -3.8589   -2.1994 H   0  0  0  0  0  0  0  0  0  0  0  0
    6.7807   -5.1406   -0.0527 H   0  0  0  0  0  0  0  0  0  0  0  0
    7.8186   -3.7428    0.3213 H   0  0  0  0  0  0  0  0  0  0  0  0
    5.7862   -3.8366    3.2880 H   0  0  0  0  0  0  0  0  0  0  0  0
    4.2201   -3.3452    3.3239 H   0  0  0  0  0  0  0  0  0  0  0  0
    5.0450   -5.9898    0.4945 H   0  0  0  0  0  0  0  0  0  0  0  0
    3.0797   -6.7137   -0.0979 H   0  0  0  0  0  0  0  0  0  0  0  0
  1  2  1  0
  1 24  1  0
  1 25  1  0
  1 26  1  0
  2  3  2  0
  2  4  1  0
  4  5  1  0
  5 19  1  0
  5  6  1  0
  5 27  1  6
  6 22  1  0
  6  7  1  0
  6 28  1  6
  7 15  1  0
  7  8  2  0
  8  9  1  0
  8 10  1  0
  9 29  1  0
  9 30  1  0
  9 31  1  0
 10 11  1  0
 10 12  1  0
 10 32  1  6
 11 33  1  0
 12 13  1  0
 12 14  1  0
 12 34  1  6
 13 35  1  0
 14 19  1  0
 14 15  1  0
 14 36  1  1
 15 16  1  6
 15 17  1  0
 16 37  1  0
 16 38  1  0
 16 39  1  0
 17 18  1  0
 17 40  1  0
 17 41  1  0
 19 18  1  6
 19 20  1  0
 20 21  1  0
 20 42  1  0
 20 43  1  0
 21 22  1  0
 22 23  1  0
 22 44  1  6
 23 45  1  0
M  END
>  <i_m_ct_stereo_status>  (215) 
1

>  <s_m_source_file>  (215) 
/var/tmp/pbs.5076255.sched01/tmp2djcgp0g/84b3bpyveh.sdf

>  <i_m_source_file_index>  (215) 
33

>  <i_lp_mmshare_version>  (215) 
48012

>  <i_f3d_flags>  (215) 
0

>  <s_epik_input>  (215) 
W0NIM11DKD1PKU9bQ0BASF0xW0NASF0oW0NASF0oW09IXSlPW0NIMl0yKUMoW0NAXShbQ0BASF0zW0NAXTEyNCkoW0NIM10pW0NIMl1PNCk9QyhbQ0gzXSlbQ0BASF0oW09IXSlbQ0BIXTNbT0hd

>  <s_epik_cmdline>  (215) 
J2VwaWtfcHl0aG9uJywgJy1waHQnLCAnMi4wJywgJy1waCcsICc3LjAnLCAnLXRuJywgJzgnLCAnLW1hJywgJzIwMCcsICctaW1hZScsICc8aW5maWxlLm1hZT4nLCAnLW9tYWUnLCAnPG91dGZpbGUubWFlPic=

>  <r_lp_tautomer_probability>  (215) 
1

>  <r_epik_Ionization_Penalty>  (215) 
2.11835e-06

>  <r_epik_Ionization_Penalty_Charging>  (215) 
0

>  <r_epik_Ionization_Penalty_Neutral>  (215) 
2.11835e-06

>  <r_epik_State_Penalty>  (215) 
-0

>  <r_epik_Charging_Adjusted_Penalty>  (215) 
0

>  <i_epik_Tot_Q>  (215) 
0

>  <i_epik_Tot_abs_Q>  (215) 
0

>  <s_epik_Chemistry_Notes>  (215) 
This compound has an ester and may undergo hydrolysis at high or low pH. This compound contains an acetal/aminal-like group ( X-CH(R)-Y where X, Y are N, S, or O) that may be acid/base labile, releasing an aldehyde.

>  <s_lp_Force_Field>  (215) 
OPLS3e

>  <r_lp_Energy>  (215) 
191.109

>  <b_lp_Chiralities_Consistent>  (215) 
1

>  <s_lp_Variant>  (215) 
71:0-1

>  <s_i_glide_gridfile>  (215) 
pfpi4k_grid

>  <i_i_glide_lignum>  (215) 
33

>  <i_i_glide_rotatable_bonds>  (215) 
5

>  <r_i_docking_score>  (215) 
-2.46125

>  <r_i_glide_ligand_efficiency>  (215) 
-0.107011

>  <r_i_glide_ligand_efficiency_sa>  (215) 
-0.304324

>  <r_i_glide_ligand_efficiency_ln>  (215) 
-0.595152

>  <r_i_glide_gscore>  (215) 
-2.46125

>  <r_i_glide_lipo>  (215) 
-0.33268

>  <r_i_glide_hbond>  (215) 
0

>  <r_i_glide_metal>  (215) 
-0

>  <r_i_glide_rewards>  (215) 
-1.24802

>  <r_i_glide_evdw>  (215) 
-18.853

>  <r_i_glide_ecoul>  (215) 
-0.676796

>  <r_i_glide_erotb>  (215) 
0.17609

>  <r_i_glide_esite>  (215) 
-0.0124727

>  <r_i_glide_emodel>  (215) 
-18.894

>  <r_i_glide_energy>  (215) 
-19.5298

>  <r_i_glide_einternal>  (215) 
7.9544

>  <r_i_glide_intrahb_reward>  (215) 
-0

>  <i_i_glide_confnum>  (215) 
3

>  <i_i_glide_posenum>  (215) 
9

>  <r_i_glide_eff_state_penalty>  (215) 
0

>  <ligand_id>  (215) 
71

>  <original_smiles>  (215) 
CC(=O)OC1C2C3=C(C)C(O)C(O)C4C3(C)COC14COC2O

>  <smiles>  (215) 
[H]OC1([H])OC([H])([H])C23OC([H])([H])C4(C([H])([H])[H])C(=C(C([H])([H])[H])C([H])(O[H])C([H])(O[H])C24[H])C1([H])C3([H])OC(=O)C([H])([H])[H]

$$$$
72:0:0
     RDKit          3D

 24 26  0  0  1  0  0  0  0  0999 V2000
    5.3630   -0.7359   -0.1496 O   0  0  0  0  0  0  0  0  0  0  0  0
    4.3046   -1.2594   -0.9367 C   0  0  2  0  0  0  0  0  0  0  0  0
    4.0394   -2.7534   -0.7083 C   0  0  1  0  0  0  0  0  0  0  0  0
    2.8125   -3.1798   -1.5811 C   0  0  0  0  0  0  0  0  0  0  0  0
    3.0388   -2.8171   -3.0877 C   0  0  2  0  0  0  0  0  0  0  0  0
    4.3556   -3.4226   -3.5699 C   0  0  0  0  0  0  0  0  0  0  0  0
    5.3518   -2.6810   -2.6659 C   0  0  2  0  0  0  0  0  0  0  0  0
    5.3053   -3.3788   -1.2984 C   0  0  0  0  0  0  0  0  0  0  0  0
    4.6984   -1.2772   -2.4235 C   0  0  1  0  0  0  0  0  0  0  0  0
    3.3896   -1.3318   -3.2196 C   0  0  0  0  0  0  0  0  0  0  0  0
    5.3694    0.2087   -0.2529 H   0  0  0  0  0  0  0  0  0  0  0  0
    3.4143   -0.6670   -0.7241 H   0  0  0  0  0  0  0  0  0  0  0  0
    3.8945   -2.9993    0.3445 H   0  0  0  0  0  0  0  0  0  0  0  0
    2.6375   -4.2506   -1.4779 H   0  0  0  0  0  0  0  0  0  0  0  0
    1.9139   -2.6840   -1.2233 H   0  0  0  0  0  0  0  0  0  0  0  0
    2.1894   -3.1017   -3.7095 H   0  0  0  0  0  0  0  0  0  0  0  0
    4.3985   -4.5065   -3.4746 H   0  0  0  0  0  0  0  0  0  0  0  0
    4.5272   -3.1916   -4.6206 H   0  0  0  0  0  0  0  0  0  0  0  0
    6.3569   -2.6600   -3.0871 H   0  0  0  0  0  0  0  0  0  0  0  0
    6.1845   -3.1391   -0.7004 H   0  0  0  0  0  0  0  0  0  0  0  0
    5.2454   -4.4657   -1.3640 H   0  0  0  0  0  0  0  0  0  0  0  0
    5.3133   -0.4252   -2.7084 H   0  0  0  0  0  0  0  0  0  0  0  0
    3.5526   -1.0533   -4.2610 H   0  0  0  0  0  0  0  0  0  0  0  0
    2.6158   -0.6687   -2.8258 H   0  0  0  0  0  0  0  0  0  0  0  0
  1  2  1  0
  1 11  1  0
  2  9  1  0
  2  3  1  0
  2 12  1  6
  3  8  1  0
  3  4  1  0
  3 13  1  1
  4  5  1  0
  4 14  1  0
  4 15  1  0
  5 10  1  0
  5  6  1  0
  5 16  1  6
  6  7  1  0
  6 17  1  0
  6 18  1  0
  7  8  1  0
  7  9  1  0
  7 19  1  6
  8 20  1  0
  8 21  1  0
  9 10  1  0
  9 22  1  6
 10 23  1  0
 10 24  1  0
M  END
>  <i_m_ct_stereo_status>  (216) 
1

>  <s_m_source_file>  (216) 
/var/tmp/pbs.5076255.sched01/tmp2djcgp0g/84b3bpyveh.sdf

>  <i_m_source_file_index>  (216) 
34

>  <i_lp_mmshare_version>  (216) 
48012

>  <i_f3d_flags>  (216) 
0

>  <s_epik_input>  (216) 
W09IXVtDQEhdKFtDQEBIXTEyKVtDQEhdM1tDQEBIXShbQ0gyXTIpW0NIMl1bQ0BASF0oW0NIMl0xKVtDSDJdMw==

>  <s_epik_cmdline>  (216) 
J2VwaWtfcHl0aG9uJywgJy1waHQnLCAnMi4wJywgJy1waCcsICc3LjAnLCAnLXRuJywgJzgnLCAnLW1hJywgJzIwMCcsICctaW1hZScsICc8aW5maWxlLm1hZT4nLCAnLW9tYWUnLCAnPG91dGZpbGUubWFlPic=

>  <r_lp_tautomer_probability>  (216) 
1

>  <r_epik_Ionization_Penalty>  (216) 
2.10415e-06

>  <r_epik_Ionization_Penalty_Charging>  (216) 
0

>  <r_epik_Ionization_Penalty_Neutral>  (216) 
2.10415e-06

>  <r_epik_State_Penalty>  (216) 
-0

>  <r_epik_Charging_Adjusted_Penalty>  (216) 
0

>  <i_epik_Tot_Q>  (216) 
0

>  <i_epik_Tot_abs_Q>  (216) 
0

>  <s_lp_Force_Field>  (216) 
OPLS3e

>  <r_lp_Energy>  (216) 
33.1811

>  <b_lp_Chiralities_Consistent>  (216) 
1

>  <s_lp_Variant>  (216) 
72:0-1

>  <s_i_glide_gridfile>  (216) 
pfpi4k_grid

>  <i_i_glide_lignum>  (216) 
34

>  <i_i_glide_rotatable_bonds>  (216) 
1

>  <r_i_docking_score>  (216) 
-4.47752

>  <r_i_glide_ligand_efficiency>  (216) 
-0.447752

>  <r_i_glide_ligand_efficiency_sa>  (216) 
-0.964652

>  <r_i_glide_ligand_efficiency_ln>  (216) 
-1.35576

>  <r_i_glide_gscore>  (216) 
-4.47752

>  <r_i_glide_lipo>  (216) 
-0.613576

>  <r_i_glide_hbond>  (216) 
-0.32

>  <r_i_glide_metal>  (216) 
-0

>  <r_i_glide_rewards>  (216) 
-2.25

>  <r_i_glide_evdw>  (216) 
-17.5063

>  <r_i_glide_ecoul>  (216) 
-2.79084

>  <r_i_glide_erotb>  (216) 
0

>  <r_i_glide_esite>  (216) 
0

>  <r_i_glide_emodel>  (216) 
-25.6667

>  <r_i_glide_energy>  (216) 
-20.2972

>  <r_i_glide_einternal>  (216) 
0.392634

>  <r_i_glide_intrahb_reward>  (216) 
-0

>  <i_i_glide_confnum>  (216) 
2

>  <i_i_glide_posenum>  (216) 
21

>  <r_i_glide_eff_state_penalty>  (216) 
0

>  <ligand_id>  (216) 
72

>  <original_smiles>  (216) 
OC1C2CC3CC(C2)C1C3

>  <smiles>  (216) 
[H]OC1([H])C2([H])C([H])([H])C3([H])C([H])([H])C([H])(C2([H])[H])C1([H])C3([H])[H]

$$$$
72:0:1
     RDKit          3D

 24 26  0  0  1  0  0  0  0  0999 V2000
    3.4373   -1.6701   -4.3041 O   0  0  0  0  0  0  0  0  0  0  0  0
    3.1807   -1.9016   -2.9215 C   0  0  2  0  0  0  0  0  0  0  0  0
    4.3136   -1.4192   -2.0061 C   0  0  1  0  0  0  0  0  0  0  0  0
    3.8989   -1.6510   -0.5146 C   0  0  0  0  0  0  0  0  0  0  0  0
    3.5123   -3.1502   -0.2723 C   0  0  2  0  0  0  0  0  0  0  0  0
    4.6570   -4.0608   -0.7240 C   0  0  0  0  0  0  0  0  0  0  0  0
    4.6837   -3.7373   -2.2266 C   0  0  2  0  0  0  0  0  0  0  0  0
    5.4240   -2.4088   -2.3615 C   0  0  0  0  0  0  0  0  0  0  0  0
    3.2020   -3.4004   -2.6031 C   0  0  1  0  0  0  0  0  0  0  0  0
    2.4451   -3.5931   -1.2762 C   0  0  0  0  0  0  0  0  0  0  0  0
    2.6434   -1.8508   -4.7911 H   0  0  0  0  0  0  0  0  0  0  0  0
    2.2291   -1.4334   -2.6767 H   0  0  0  0  0  0  0  0  0  0  0  0
    4.5910   -0.3810   -2.1937 H   0  0  0  0  0  0  0  0  0  0  0  0
    4.7189   -1.3678    0.1486 H   0  0  0  0  0  0  0  0  0  0  0  0
    3.0504   -1.0134   -0.2598 H   0  0  0  0  0  0  0  0  0  0  0  0
    3.2194   -3.3381    0.7634 H   0  0  0  0  0  0  0  0  0  0  0  0
    5.5997   -3.8663   -0.2098 H   0  0  0  0  0  0  0  0  0  0  0  0
    4.4118   -5.1136   -0.5625 H   0  0  0  0  0  0  0  0  0  0  0  0
    5.1309   -4.5357   -2.8201 H   0  0  0  0  0  0  0  0  0  0  0  0
    5.7531   -2.2837   -3.3897 H   0  0  0  0  0  0  0  0  0  0  0  0
    6.3039   -2.3246   -1.7220 H   0  0  0  0  0  0  0  0  0  0  0  0
    2.7870   -3.9872   -3.4220 H   0  0  0  0  0  0  0  0  0  0  0  0
    2.2009   -4.6457   -1.1201 H   0  0  0  0  0  0  0  0  0  0  0  0
    1.5013   -3.0567   -1.2208 H   0  0  0  0  0  0  0  0  0  0  0  0
  1  2  1  0
  1 11  1  0
  2  9  1  0
  2  3  1  0
  2 12  1  1
  3  8  1  0
  3  4  1  0
  3 13  1  1
  4  5  1  0
  4 14  1  0
  4 15  1  0
  5 10  1  0
  5  6  1  0
  5 16  1  1
  6  7  1  0
  6 17  1  0
  6 18  1  0
  7  8  1  0
  7  9  1  0
  7 19  1  6
  8 20  1  0
  8 21  1  0
  9 10  1  0
  9 22  1  6
 10 23  1  0
 10 24  1  0
M  END
>  <i_m_ct_stereo_status>  (217) 
1

>  <s_m_source_file>  (217) 
/var/tmp/pbs.5076255.sched01/tmp2djcgp0g/84b3bpyveh.sdf

>  <i_m_source_file_index>  (217) 
34

>  <i_lp_mmshare_version>  (217) 
48012

>  <i_f3d_flags>  (217) 
0

>  <s_epik_input>  (217) 
W09IXVtDQEhdKFtDQEBIXTEyKVtDQEhdM1tDQEBIXShbQ0gyXTIpW0NIMl1bQ0BASF0oW0NIMl0xKVtDSDJdMw==

>  <s_epik_cmdline>  (217) 
J2VwaWtfcHl0aG9uJywgJy1waHQnLCAnMi4wJywgJy1waCcsICc3LjAnLCAnLXRuJywgJzgnLCAnLW1hJywgJzIwMCcsICctaW1hZScsICc8aW5maWxlLm1hZT4nLCAnLW9tYWUnLCAnPG91dGZpbGUubWFlPic=

>  <r_lp_tautomer_probability>  (217) 
1

>  <r_epik_Ionization_Penalty>  (217) 
2.10415e-06

>  <r_epik_Ionization_Penalty_Charging>  (217) 
0

>  <r_epik_Ionization_Penalty_Neutral>  (217) 
2.10415e-06

>  <r_epik_State_Penalty>  (217) 
-0

>  <r_epik_Charging_Adjusted_Penalty>  (217) 
0

>  <i_epik_Tot_Q>  (217) 
0

>  <i_epik_Tot_abs_Q>  (217) 
0

>  <s_lp_Force_Field>  (217) 
OPLS3e

>  <r_lp_Energy>  (217) 
33.1811

>  <b_lp_Chiralities_Consistent>  (217) 
1

>  <s_lp_Variant>  (217) 
72:0-1

>  <s_i_glide_gridfile>  (217) 
pfpi4k_grid

>  <i_i_glide_lignum>  (217) 
34

>  <i_i_glide_rotatable_bonds>  (217) 
1

>  <r_i_docking_score>  (217) 
-4.14269

>  <r_i_glide_ligand_efficiency>  (217) 
-0.414269

>  <r_i_glide_ligand_efficiency_sa>  (217) 
-0.892516

>  <r_i_glide_ligand_efficiency_ln>  (217) 
-1.25438

>  <r_i_glide_gscore>  (217) 
-4.14269

>  <r_i_glide_lipo>  (217) 
-0.0618912

>  <r_i_glide_hbond>  (217) 
-0.523405

>  <r_i_glide_metal>  (217) 
-0

>  <r_i_glide_rewards>  (217) 
-2.25

>  <r_i_glide_evdw>  (217) 
-13.5682

>  <r_i_glide_ecoul>  (217) 
-4.19325

>  <r_i_glide_erotb>  (217) 
0

>  <r_i_glide_esite>  (217) 
0

>  <r_i_glide_emodel>  (217) 
-22.6856

>  <r_i_glide_energy>  (217) 
-17.7614

>  <r_i_glide_einternal>  (217) 
0.421152

>  <r_i_glide_intrahb_reward>  (217) 
-0

>  <i_i_glide_confnum>  (217) 
1

>  <i_i_glide_posenum>  (217) 
15

>  <r_i_glide_eff_state_penalty>  (217) 
0

>  <ligand_id>  (217) 
72

>  <original_smiles>  (217) 
OC1C2CC3CC(C2)C1C3

>  <smiles>  (217) 
[H]OC1([H])C2([H])C([H])([H])C3([H])C([H])([H])C([H])(C2([H])[H])C1([H])C3([H])[H]

$$$$
72:0:2
     RDKit          3D

 24 26  0  0  1  0  0  0  0  0999 V2000
    1.9663   -3.8557   -1.2166 O   0  0  0  0  0  0  0  0  0  0  0  0
    3.0290   -3.0126   -0.8223 C   0  0  2  0  0  0  0  0  0  0  0  0
    3.4546   -2.0172   -1.9132 C   0  0  1  0  0  0  0  0  0  0  0  0
    4.5638   -1.0780   -1.3296 C   0  0  0  0  0  0  0  0  0  0  0  0
    5.7525   -1.9136   -0.7510 C   0  0  2  0  0  0  0  0  0  0  0  0
    6.2797   -2.8677   -1.8192 C   0  0  0  0  0  0  0  0  0  0  0  0
    5.0391   -3.7441   -2.0444 C   0  0  2  0  0  0  0  0  0  0  0  0
    4.0893   -2.9472   -2.9456 C   0  0  0  0  0  0  0  0  0  0  0  0
    4.3370   -3.8024   -0.6472 C   0  0  1  0  0  0  0  0  0  0  0  0
    5.2332   -2.9407    0.2552 C   0  0  0  0  0  0  0  0  0  0  0  0
    2.2732   -4.4251   -1.9189 H   0  0  0  0  0  0  0  0  0  0  0  0
    2.7067   -2.4925    0.0816 H   0  0  0  0  0  0  0  0  0  0  0  0
    2.6143   -1.4504   -2.3141 H   0  0  0  0  0  0  0  0  0  0  0  0
    4.9234   -0.3954   -2.1037 H   0  0  0  0  0  0  0  0  0  0  0  0
    4.1441   -0.4534   -0.5376 H   0  0  0  0  0  0  0  0  0  0  0  0
    6.5315   -1.2816   -0.3222 H   0  0  0  0  0  0  0  0  0  0  0  0
    6.6261   -2.3645   -2.7173 H   0  0  0  0  0  0  0  0  0  0  0  0
    7.1162   -3.4575   -1.4401 H   0  0  0  0  0  0  0  0  0  0  0  0
    5.2833   -4.7124   -2.4709 H   0  0  0  0  0  0  0  0  0  0  0  0
    3.3453   -3.6002   -3.4026 H   0  0  0  0  0  0  0  0  0  0  0  0
    4.5938   -2.4144   -3.7529 H   0  0  0  0  0  0  0  0  0  0  0  0
    4.1888   -4.8086   -0.2538 H   0  0  0  0  0  0  0  0  0  0  0  0
    6.0572   -3.5299    0.6624 H   0  0  0  0  0  0  0  0  0  0  0  0
    4.7087   -2.4850    1.0971 H   0  0  0  0  0  0  0  0  0  0  0  0
  1  2  1  0
  1 11  1  0
  2  9  1  0
  2  3  1  0
  2 12  1  1
  3  8  1  0
  3  4  1  0
  3 13  1  6
  4  5  1  0
  4 14  1  0
  4 15  1  0
  5 10  1  0
  5  6  1  0
  5 16  1  1
  6  7  1  0
  6 17  1  0
  6 18  1  0
  7  8  1  0
  7  9  1  0
  7 19  1  6
  8 20  1  0
  8 21  1  0
  9 10  1  0
  9 22  1  1
 10 23  1  0
 10 24  1  0
M  END
>  <i_m_ct_stereo_status>  (218) 
1

>  <s_m_source_file>  (218) 
/var/tmp/pbs.5076255.sched01/tmp2djcgp0g/84b3bpyveh.sdf

>  <i_m_source_file_index>  (218) 
34

>  <i_lp_mmshare_version>  (218) 
48012

>  <i_f3d_flags>  (218) 
0

>  <s_epik_input>  (218) 
W09IXVtDQEhdKFtDQEBIXTEyKVtDQEhdM1tDQEBIXShbQ0gyXTIpW0NIMl1bQ0BASF0oW0NIMl0xKVtDSDJdMw==

>  <s_epik_cmdline>  (218) 
J2VwaWtfcHl0aG9uJywgJy1waHQnLCAnMi4wJywgJy1waCcsICc3LjAnLCAnLXRuJywgJzgnLCAnLW1hJywgJzIwMCcsICctaW1hZScsICc8aW5maWxlLm1hZT4nLCAnLW9tYWUnLCAnPG91dGZpbGUubWFlPic=

>  <r_lp_tautomer_probability>  (218) 
1

>  <r_epik_Ionization_Penalty>  (218) 
2.10415e-06

>  <r_epik_Ionization_Penalty_Charging>  (218) 
0

>  <r_epik_Ionization_Penalty_Neutral>  (218) 
2.10415e-06

>  <r_epik_State_Penalty>  (218) 
-0

>  <r_epik_Charging_Adjusted_Penalty>  (218) 
0

>  <i_epik_Tot_Q>  (218) 
0

>  <i_epik_Tot_abs_Q>  (218) 
0

>  <s_lp_Force_Field>  (218) 
OPLS3e

>  <r_lp_Energy>  (218) 
33.1811

>  <b_lp_Chiralities_Consistent>  (218) 
1

>  <s_lp_Variant>  (218) 
72:0-1

>  <s_i_glide_gridfile>  (218) 
pfpi4k_grid

>  <i_i_glide_lignum>  (218) 
34

>  <i_i_glide_rotatable_bonds>  (218) 
1

>  <r_i_docking_score>  (218) 
-3.98073

>  <r_i_glide_ligand_efficiency>  (218) 
-0.398073

>  <r_i_glide_ligand_efficiency_sa>  (218) 
-0.857623

>  <r_i_glide_ligand_efficiency_ln>  (218) 
-1.20534

>  <r_i_glide_gscore>  (218) 
-3.98073

>  <r_i_glide_lipo>  (218) 
-0.112212

>  <r_i_glide_hbond>  (218) 
-0.32

>  <r_i_glide_metal>  (218) 
-0

>  <r_i_glide_rewards>  (218) 
-2.25

>  <r_i_glide_evdw>  (218) 
-15.8463

>  <r_i_glide_ecoul>  (218) 
-3.37471

>  <r_i_glide_erotb>  (218) 
0

>  <r_i_glide_esite>  (218) 
0

>  <r_i_glide_emodel>  (218) 
-24.125

>  <r_i_glide_energy>  (218) 
-19.221

>  <r_i_glide_einternal>  (218) 
0.109123

>  <r_i_glide_intrahb_reward>  (218) 
-0

>  <i_i_glide_confnum>  (218) 
1

>  <i_i_glide_posenum>  (218) 
1

>  <r_i_glide_eff_state_penalty>  (218) 
0

>  <ligand_id>  (218) 
72

>  <original_smiles>  (218) 
OC1C2CC3CC(C2)C1C3

>  <smiles>  (218) 
[H]OC1([H])C2([H])C([H])([H])C3([H])C([H])([H])C([H])(C2([H])[H])C1([H])C3([H])[H]

$$$$
75:0:0
     RDKit          3D

 42 46  0  0  1  0  0  0  0  0999 V2000
    1.8508   -0.5490    2.9435 C   0  0  0  0  0  0  0  0  0  0  0  0
    2.8156   -1.4517    2.6843 C   0  0  0  0  0  0  0  0  0  0  0  0
    3.4789   -2.2442    3.7783 C   0  0  0  0  0  0  0  0  0  0  0  0
    4.9823   -2.2540    3.5247 C   0  0  0  0  0  0  0  0  0  0  0  0
    5.3721   -2.3603    2.0191 C   0  0  1  0  0  0  0  0  0  0  0  0
    4.9207   -3.6061    1.2494 C   0  0  2  0  0  0  0  0  0  0  0  0
    5.1006   -4.9364    2.0026 C   0  0  0  0  0  0  0  0  0  0  0  0
    5.7453   -3.7249    0.0731 O   0  0  0  0  0  0  0  0  0  0  0  0
    6.3971   -2.6681   -0.4805 C   0  0  0  0  0  0  0  0  0  0  0  0
    7.1187   -2.7356   -1.4733 O   0  0  0  0  0  0  0  0  0  0  0  0
    6.1419   -1.3016    0.2102 C   0  0  0  0  0  0  0  0  0  0  0  0
    4.8329   -1.1380    1.1321 C   0  0  2  0  0  0  0  0  0  0  0  0
    4.2982   -0.6521   -0.1696 O   0  0  0  0  0  0  0  0  0  0  0  0
    3.9584   -1.2889   -1.3810 C   0  0  0  0  0  0  0  0  0  0  0  0
    4.2169   -0.5022   -2.5256 C   0  0  0  0  0  0  0  0  0  0  0  0
    4.0069   -0.9753   -3.8277 C   0  0  0  0  0  0  0  0  0  0  0  0
    3.5033   -2.2647   -4.0073 C   0  0  0  0  0  0  0  0  0  0  0  0
    3.1972   -3.0560   -2.8932 C   0  0  0  0  0  0  0  0  0  0  0  0
    3.4112   -2.5938   -1.5781 C   0  0  0  0  0  0  0  0  0  0  0  0
    2.9694   -3.5358   -0.4674 C   0  0  0  0  0  0  0  0  0  0  0  0
    3.4545   -3.2316    0.9503 C   0  0  2  0  0  0  0  0  0  0  0  0
    3.3633   -1.7332    1.2818 C   0  0  1  0  0  0  0  0  0  0  0  0
    1.3964    0.0361    2.1564 H   0  0  0  0  0  0  0  0  0  0  0  0
    1.5133   -0.3738    3.9544 H   0  0  0  0  0  0  0  0  0  0  0  0
    3.2500   -1.8320    4.7618 H   0  0  0  0  0  0  0  0  0  0  0  0
    3.0828   -3.2604    3.7737 H   0  0  0  0  0  0  0  0  0  0  0  0
    5.3989   -1.3254    3.9209 H   0  0  0  0  0  0  0  0  0  0  0  0
    5.4420   -3.0565    4.1036 H   0  0  0  0  0  0  0  0  0  0  0  0
    6.4556   -2.4179    2.1506 H   0  0  0  0  0  0  0  0  0  0  0  0
    4.4957   -4.9991    2.9079 H   0  0  0  0  0  0  0  0  0  0  0  0
    6.1453   -5.0811    2.2853 H   0  0  0  0  0  0  0  0  0  0  0  0
    4.8190   -5.7716    1.3599 H   0  0  0  0  0  0  0  0  0  0  0  0
    7.0380   -1.0948    0.7975 H   0  0  0  0  0  0  0  0  0  0  0  0
    6.2497   -0.5288   -0.5536 H   0  0  0  0  0  0  0  0  0  0  0  0
    4.6097    0.4954   -2.4028 H   0  0  0  0  0  0  0  0  0  0  0  0
    4.2290   -0.3485   -4.6803 H   0  0  0  0  0  0  0  0  0  0  0  0
    3.3242   -2.6564   -4.9927 H   0  0  0  0  0  0  0  0  0  0  0  0
    2.7663   -4.0238   -3.0695 H   0  0  0  0  0  0  0  0  0  0  0  0
    1.8815   -3.4704   -0.4662 H   0  0  0  0  0  0  0  0  0  0  0  0
    3.2040   -4.5693   -0.7249 H   0  0  0  0  0  0  0  0  0  0  0  0
    2.8009   -3.7908    1.6176 H   0  0  0  0  0  0  0  0  0  0  0  0
    2.5524   -1.2815    0.6989 H   0  0  0  0  0  0  0  0  0  0  0  0
  1  2  2  0
  1 23  1  0
  1 24  1  0
  2 22  1  0
  2  3  1  0
  3  4  1  0
  3 25  1  0
  3 26  1  0
  4  5  1  0
  4 27  1  0
  4 28  1  0
  5 12  1  0
  5  6  1  0
  5 29  1  1
  6 21  1  0
  6  7  1  1
  6  8  1  0
  7 30  1  0
  7 31  1  0
  7 32  1  0
  8  9  1  0
  9 10  2  0
  9 11  1  0
 11 12  1  0
 11 33  1  0
 11 34  1  0
 12 22  1  0
 12 13  1  1
 13 14  1  0
 14 19  2  0
 14 15  1  0
 15 16  2  0
 15 35  1  0
 16 17  1  0
 16 36  1  0
 17 18  2  0
 17 37  1  0
 18 19  1  0
 18 38  1  0
 19 20  1  0
 20 21  1  0
 20 39  1  0
 20 40  1  0
 21 22  1  0
 21 41  1  1
 22 42  1  6
M  END
>  <i_m_ct_stereo_status>  (219) 
1

>  <s_m_source_file>  (219) 
/var/tmp/pbs.5076255.sched01/tmp2djcgp0g/84b3bpyveh.sdf

>  <i_m_source_file_index>  (219) 
37

>  <i_lp_mmshare_version>  (219) 
48012

>  <i_f3d_flags>  (219) 
2

>  <s_epik_input>  (219) 
W0NIMl0xW0NIMl1DKD1bQ0gyXSlbQ0BASF0yW0NASF0oW0NAQF0oW0NASF0xQzIzNCkoW0NIM10pT0MoPU8pW0NIMl0zKVtDSDJdYzVjKE80KVtjSF1bY0hdW2NIXVtjSF01

>  <s_epik_cmdline>  (219) 
J2VwaWtfcHl0aG9uJywgJy1waHQnLCAnMi4wJywgJy1waCcsICc3LjAnLCAnLXRuJywgJzgnLCAnLW1hJywgJzIwMCcsICctaW1hZScsICc8aW5maWxlLm1hZT4nLCAnLW9tYWUnLCAnPG91dGZpbGUubWFlPic=

>  <r_lp_tautomer_probability>  (219) 
1

>  <r_epik_Ionization_Penalty>  (219) 
5.95505e-11

>  <r_epik_Ionization_Penalty_Charging>  (219) 
0

>  <r_epik_Ionization_Penalty_Neutral>  (219) 
5.95505e-11

>  <r_epik_State_Penalty>  (219) 
-0

>  <r_epik_Charging_Adjusted_Penalty>  (219) 
0

>  <i_epik_Tot_Q>  (219) 
0

>  <i_epik_Tot_abs_Q>  (219) 
0

>  <s_epik_Chemistry_Notes>  (219) 
This compound has an ester and may undergo hydrolysis at high or low pH.

>  <s_lp_Force_Field>  (219) 
OPLS3e

>  <r_lp_Energy>  (219) 
164.309

>  <b_lp_Chiralities_Consistent>  (219) 
0

>  <s_lp_Variant>  (219) 
75:0-1

>  <s_i_glide_gridfile>  (219) 
pfpi4k_grid

>  <i_i_glide_lignum>  (219) 
37

>  <i_i_glide_rotatable_bonds>  (219) 
0

>  <r_i_docking_score>  (219) 
-3.46233

>  <r_i_glide_ligand_efficiency>  (219) 
-0.157378

>  <r_i_glide_ligand_efficiency_sa>  (219) 
-0.440981

>  <r_i_glide_ligand_efficiency_ln>  (219) 
-0.846319

>  <r_i_glide_gscore>  (219) 
-3.46233

>  <r_i_glide_lipo>  (219) 
-0.607835

>  <r_i_glide_hbond>  (219) 
-0.0836188

>  <r_i_glide_metal>  (219) 
-0

>  <r_i_glide_rewards>  (219) 
-1.38845

>  <r_i_glide_evdw>  (219) 
-26.4565

>  <r_i_glide_ecoul>  (219) 
-0.356663

>  <r_i_glide_erotb>  (219) 
0

>  <r_i_glide_esite>  (219) 
-0.00609405

>  <r_i_glide_emodel>  (219) 
-32.5338

>  <r_i_glide_energy>  (219) 
-26.8132

>  <r_i_glide_einternal>  (219) 
0

>  <r_i_glide_intrahb_reward>  (219) 
-0

>  <i_i_glide_confnum>  (219) 
2

>  <i_i_glide_posenum>  (219) 
2

>  <r_i_glide_eff_state_penalty>  (219) 
0

>  <ligand_id>  (219) 
75

>  <original_smiles>  (219) 
C=C1CCC2C3(C)OC(=O)CC24Oc2ccccc2CC3C14

>  <smiles>  (219) 
[H]C([H])=C1C([H])([H])C([H])([H])C2([H])C34Oc5c([H])c([H])c([H])c([H])c5C([H])([H])C([H])(C13[H])C2(C([H])([H])[H])OC(=O)C4([H])[H]

$$$$
75:0:1
     RDKit          3D

 42 46  0  0  1  0  0  0  0  0999 V2000
    4.6772   -3.3061   -3.1248 C   0  0  0  0  0  0  0  0  0  0  0  0
    4.3920   -2.9054   -1.8714 C   0  0  0  0  0  0  0  0  0  0  0  0
    4.0923   -1.4699   -1.5461 C   0  0  0  0  0  0  0  0  0  0  0  0
    4.8464   -1.0922   -0.2780 C   0  0  0  0  0  0  0  0  0  0  0  0
    4.9170   -2.2348    0.7853 C   0  0  1  0  0  0  0  0  0  0  0  0
    3.5873   -2.7437    1.3563 C   0  0  2  0  0  0  0  0  0  0  0  0
    2.5708   -1.6571    1.7296 C   0  0  0  0  0  0  0  0  0  0  0  0
    3.8714   -3.4221    2.5815 O   0  0  0  0  0  0  0  0  0  0  0  0
    5.0670   -3.9335    2.8984 C   0  0  0  0  0  0  0  0  0  0  0  0
    5.3651   -4.4846    3.9560 O   0  0  0  0  0  0  0  0  0  0  0  0
    6.1483   -3.8129    1.7715 C   0  0  0  0  0  0  0  0  0  0  0  0
    5.6493   -3.5616    0.2646 C   0  0  2  0  0  0  0  0  0  0  0  0
    5.7641   -5.0465    0.2568 O   0  0  0  0  0  0  0  0  0  0  0  0
    5.0014   -6.0640    0.8609 C   0  0  0  0  0  0  0  0  0  0  0  0
    5.7853   -7.1739    1.2790 C   0  0  0  0  0  0  0  0  0  0  0  0
    5.2187   -8.2760    1.9545 C   0  0  0  0  0  0  0  0  0  0  0  0
    3.8402   -8.2915    2.2303 C   0  0  0  0  0  0  0  0  0  0  0  0
    3.0330   -7.2132    1.8077 C   0  0  0  0  0  0  0  0  0  0  0  0
    3.5931   -6.1072    1.1071 C   0  0  0  0  0  0  0  0  0  0  0  0
    2.5924   -5.0533    0.6654 C   0  0  0  0  0  0  0  0  0  0  0  0
    3.1466   -3.6949    0.2222 C   0  0  2  0  0  0  0  0  0  0  0  0
    4.3939   -3.8453   -0.6625 C   0  0  1  0  0  0  0  0  0  0  0  0
    4.9153   -4.3363   -3.3508 H   0  0  0  0  0  0  0  0  0  0  0  0
    4.6795   -2.5995   -3.9392 H   0  0  0  0  0  0  0  0  0  0  0  0
    4.3526   -0.8080   -2.3741 H   0  0  0  0  0  0  0  0  0  0  0  0
    3.0141   -1.3586   -1.3992 H   0  0  0  0  0  0  0  0  0  0  0  0
    5.8668   -0.8272   -0.5589 H   0  0  0  0  0  0  0  0  0  0  0  0
    4.4135   -0.1848    0.1462 H   0  0  0  0  0  0  0  0  0  0  0  0
    5.4295   -1.6702    1.5671 H   0  0  0  0  0  0  0  0  0  0  0  0
    2.2285   -1.0752    0.8798 H   0  0  0  0  0  0  0  0  0  0  0  0
    2.9924   -0.9559    2.4519 H   0  0  0  0  0  0  0  0  0  0  0  0
    1.6868   -2.1064    2.1865 H   0  0  0  0  0  0  0  0  0  0  0  0
    6.7975   -2.9904    2.0742 H   0  0  0  0  0  0  0  0  0  0  0  0
    6.8586   -4.6363    1.8950 H   0  0  0  0  0  0  0  0  0  0  0  0
    6.8433   -7.1681    1.0901 H   0  0  0  0  0  0  0  0  0  0  0  0
    5.8377   -9.0975    2.2656 H   0  0  0  0  0  0  0  0  0  0  0  0
    3.4026   -9.1242    2.7531 H   0  0  0  0  0  0  0  0  0  0  0  0
    1.9803   -7.2497    2.0120 H   0  0  0  0  0  0  0  0  0  0  0  0
    2.0832   -5.4896   -0.1954 H   0  0  0  0  0  0  0  0  0  0  0  0
    1.8294   -4.9122    1.4274 H   0  0  0  0  0  0  0  0  0  0  0  0
    2.3499   -3.2128   -0.3442 H   0  0  0  0  0  0  0  0  0  0  0  0
    4.3368   -4.7991   -1.1930 H   0  0  0  0  0  0  0  0  0  0  0  0
  1  2  2  0
  1 23  1  0
  1 24  1  0
  2 22  1  0
  2  3  1  0
  3  4  1  0
  3 25  1  0
  3 26  1  0
  4  5  1  0
  4 27  1  0
  4 28  1  0
  5 12  1  0
  5  6  1  0
  5 29  1  1
  6 21  1  0
  6  7  1  1
  6  8  1  0
  7 30  1  0
  7 31  1  0
  7 32  1  0
  8  9  1  0
  9 10  2  0
  9 11  1  0
 11 12  1  0
 11 33  1  0
 11 34  1  0
 12 22  1  0
 12 13  1  6
 13 14  1  0
 14 19  2  0
 14 15  1  0
 15 16  2  0
 15 35  1  0
 16 17  1  0
 16 36  1  0
 17 18  2  0
 17 37  1  0
 18 19  1  0
 18 38  1  0
 19 20  1  0
 20 21  1  0
 20 39  1  0
 20 40  1  0
 21 22  1  0
 21 41  1  6
 22 42  1  6
M  END
>  <i_m_ct_stereo_status>  (220) 
1

>  <s_m_source_file>  (220) 
/var/tmp/pbs.5076255.sched01/tmp2djcgp0g/84b3bpyveh.sdf

>  <i_m_source_file_index>  (220) 
37

>  <i_lp_mmshare_version>  (220) 
48012

>  <i_f3d_flags>  (220) 
2

>  <s_epik_input>  (220) 
W0NIMl0xW0NIMl1DKD1bQ0gyXSlbQ0BASF0yW0NASF0oW0NAQF0oW0NASF0xQzIzNCkoW0NIM10pT0MoPU8pW0NIMl0zKVtDSDJdYzVjKE80KVtjSF1bY0hdW2NIXVtjSF01

>  <s_epik_cmdline>  (220) 
J2VwaWtfcHl0aG9uJywgJy1waHQnLCAnMi4wJywgJy1waCcsICc3LjAnLCAnLXRuJywgJzgnLCAnLW1hJywgJzIwMCcsICctaW1hZScsICc8aW5maWxlLm1hZT4nLCAnLW9tYWUnLCAnPG91dGZpbGUubWFlPic=

>  <r_lp_tautomer_probability>  (220) 
1

>  <r_epik_Ionization_Penalty>  (220) 
5.95505e-11

>  <r_epik_Ionization_Penalty_Charging>  (220) 
0

>  <r_epik_Ionization_Penalty_Neutral>  (220) 
5.95505e-11

>  <r_epik_State_Penalty>  (220) 
-0

>  <r_epik_Charging_Adjusted_Penalty>  (220) 
0

>  <i_epik_Tot_Q>  (220) 
0

>  <i_epik_Tot_abs_Q>  (220) 
0

>  <s_epik_Chemistry_Notes>  (220) 
This compound has an ester and may undergo hydrolysis at high or low pH.

>  <s_lp_Force_Field>  (220) 
OPLS3e

>  <r_lp_Energy>  (220) 
164.309

>  <b_lp_Chiralities_Consistent>  (220) 
0

>  <s_lp_Variant>  (220) 
75:0-1

>  <s_i_glide_gridfile>  (220) 
pfpi4k_grid

>  <i_i_glide_lignum>  (220) 
37

>  <i_i_glide_rotatable_bonds>  (220) 
0

>  <r_i_docking_score>  (220) 
-3.39016

>  <r_i_glide_ligand_efficiency>  (220) 
-0.154098

>  <r_i_glide_ligand_efficiency_sa>  (220) 
-0.431789

>  <r_i_glide_ligand_efficiency_ln>  (220) 
-0.828678

>  <r_i_glide_gscore>  (220) 
-3.39016

>  <r_i_glide_lipo>  (220) 
-0.613396

>  <r_i_glide_hbond>  (220) 
0

>  <r_i_glide_metal>  (220) 
-0

>  <r_i_glide_rewards>  (220) 
-1.42987

>  <r_i_glide_evdw>  (220) 
-24.7345

>  <r_i_glide_ecoul>  (220) 
-0.734462

>  <r_i_glide_erotb>  (220) 
0

>  <r_i_glide_esite>  (220) 
0

>  <r_i_glide_emodel>  (220) 
-31.0491

>  <r_i_glide_energy>  (220) 
-25.4689

>  <r_i_glide_einternal>  (220) 
0

>  <r_i_glide_intrahb_reward>  (220) 
-0

>  <i_i_glide_confnum>  (220) 
1

>  <i_i_glide_posenum>  (220) 
5

>  <r_i_glide_eff_state_penalty>  (220) 
0

>  <ligand_id>  (220) 
75

>  <original_smiles>  (220) 
C=C1CCC2C3(C)OC(=O)CC24Oc2ccccc2CC3C14

>  <smiles>  (220) 
[H]C([H])=C1C([H])([H])C([H])([H])C2([H])C34Oc5c([H])c([H])c([H])c([H])c5C([H])([H])C([H])(C13[H])C2(C([H])([H])[H])OC(=O)C4([H])[H]

$$$$
75:0:2
     RDKit          3D

 42 46  0  0  1  0  0  0  0  0999 V2000
    2.3466   -2.7511   -3.1175 C   0  0  0  0  0  0  0  0  0  0  0  0
    3.3658   -2.5777   -2.2571 C   0  0  0  0  0  0  0  0  0  0  0  0
    4.6247   -1.8605   -2.6584 C   0  0  0  0  0  0  0  0  0  0  0  0
    5.8159   -2.6636   -2.1446 C   0  0  0  0  0  0  0  0  0  0  0  0
    5.5944   -3.3021   -0.7399 C   0  0  1  0  0  0  0  0  0  0  0  0
    5.3188   -2.3588    0.4351 C   0  0  2  0  0  0  0  0  0  0  0  0
    6.2107   -1.1061    0.4949 C   0  0  0  0  0  0  0  0  0  0  0  0
    5.6067   -3.0715    1.6510 O   0  0  0  0  0  0  0  0  0  0  0  0
    5.5954   -4.4291    1.7366 C   0  0  0  0  0  0  0  0  0  0  0  0
    5.8498   -5.0557    2.7621 O   0  0  0  0  0  0  0  0  0  0  0  0
    5.1918   -5.1678    0.4310 C   0  0  0  0  0  0  0  0  0  0  0  0
    4.3772   -4.3465   -0.6913 C   0  0  2  0  0  0  0  0  0  0  0  0
    3.2426   -4.9493    0.0648 O   0  0  0  0  0  0  0  0  0  0  0  0
    2.6850   -4.7102    1.3356 C   0  0  0  0  0  0  0  0  0  0  0  0
    2.1976   -5.8805    1.9544 C   0  0  0  0  0  0  0  0  0  0  0  0
    1.6684   -5.8636    3.2569 C   0  0  0  0  0  0  0  0  0  0  0  0
    1.5954   -4.6521    3.9599 C   0  0  0  0  0  0  0  0  0  0  0  0
    2.0409   -3.4681    3.3513 C   0  0  0  0  0  0  0  0  0  0  0  0
    2.5775   -3.4699    2.0424 C   0  0  0  0  0  0  0  0  0  0  0  0
    2.9484   -2.1036    1.4797 C   0  0  0  0  0  0  0  0  0  0  0  0
    3.8189   -2.0703    0.2205 C   0  0  2  0  0  0  0  0  0  0  0  0
    3.3741   -3.1130   -0.8185 C   0  0  1  0  0  0  0  0  0  0  0  0
    1.4512   -3.2824   -2.8274 H   0  0  0  0  0  0  0  0  0  0  0  0
    2.3877   -2.3656   -4.1255 H   0  0  0  0  0  0  0  0  0  0  0  0
    4.6733   -1.7281   -3.7399 H   0  0  0  0  0  0  0  0  0  0  0  0
    4.6165   -0.8580   -2.2288 H   0  0  0  0  0  0  0  0  0  0  0  0
    6.0192   -3.4641   -2.8587 H   0  0  0  0  0  0  0  0  0  0  0  0
    6.7083   -2.0389   -2.1457 H   0  0  0  0  0  0  0  0  0  0  0  0
    6.5954   -3.7251   -0.6137 H   0  0  0  0  0  0  0  0  0  0  0  0
    6.0593   -0.4389   -0.3523 H   0  0  0  0  0  0  0  0  0  0  0  0
    7.2660   -1.3825    0.5332 H   0  0  0  0  0  0  0  0  0  0  0  0
    5.9953   -0.5351    1.3990 H   0  0  0  0  0  0  0  0  0  0  0  0
    6.1222   -5.5442    0.0048 H   0  0  0  0  0  0  0  0  0  0  0  0
    4.7446   -6.1240    0.7184 H   0  0  0  0  0  0  0  0  0  0  0  0
    2.2700   -6.8245    1.4330 H   0  0  0  0  0  0  0  0  0  0  0  0
    1.3321   -6.7804    3.7197 H   0  0  0  0  0  0  0  0  0  0  0  0
    1.1999   -4.6298    4.9656 H   0  0  0  0  0  0  0  0  0  0  0  0
    1.9620   -2.5375    3.8945 H   0  0  0  0  0  0  0  0  0  0  0  0
    1.9981   -1.6295    1.2318 H   0  0  0  0  0  0  0  0  0  0  0  0
    3.3899   -1.4786    2.2567 H   0  0  0  0  0  0  0  0  0  0  0  0
    3.7034   -1.0702   -0.1960 H   0  0  0  0  0  0  0  0  0  0  0  0
    2.2979   -3.2911   -0.7070 H   0  0  0  0  0  0  0  0  0  0  0  0
  1  2  2  0
  1 23  1  0
  1 24  1  0
  2 22  1  0
  2  3  1  0
  3  4  1  0
  3 25  1  0
  3 26  1  0
  4  5  1  0
  4 27  1  0
  4 28  1  0
  5 12  1  0
  5  6  1  0
  5 29  1  1
  6 21  1  0
  6  7  1  6
  6  8  1  0
  7 30  1  0
  7 31  1  0
  7 32  1  0
  8  9  1  0
  9 10  2  0
  9 11  1  0
 11 12  1  0
 11 33  1  0
 11 34  1  0
 12 22  1  0
 12 13  1  6
 13 14  1  0
 14 19  2  0
 14 15  1  0
 15 16  2  0
 15 35  1  0
 16 17  1  0
 16 36  1  0
 17 18  2  0
 17 37  1  0
 18 19  1  0
 18 38  1  0
 19 20  1  0
 20 21  1  0
 20 39  1  0
 20 40  1  0
 21 22  1  0
 21 41  1  6
 22 42  1  1
M  END
>  <i_m_ct_stereo_status>  (221) 
1

>  <s_m_source_file>  (221) 
/var/tmp/pbs.5076255.sched01/tmp2djcgp0g/84b3bpyveh.sdf

>  <i_m_source_file_index>  (221) 
37

>  <i_lp_mmshare_version>  (221) 
48012

>  <i_f3d_flags>  (221) 
2

>  <s_epik_input>  (221) 
W0NIMl0xW0NIMl1DKD1bQ0gyXSlbQ0BASF0yW0NASF0oW0NAQF0oW0NASF0xQzIzNCkoW0NIM10pT0MoPU8pW0NIMl0zKVtDSDJdYzVjKE80KVtjSF1bY0hdW2NIXVtjSF01

>  <s_epik_cmdline>  (221) 
J2VwaWtfcHl0aG9uJywgJy1waHQnLCAnMi4wJywgJy1waCcsICc3LjAnLCAnLXRuJywgJzgnLCAnLW1hJywgJzIwMCcsICctaW1hZScsICc8aW5maWxlLm1hZT4nLCAnLW9tYWUnLCAnPG91dGZpbGUubWFlPic=

>  <r_lp_tautomer_probability>  (221) 
1

>  <r_epik_Ionization_Penalty>  (221) 
5.95505e-11

>  <r_epik_Ionization_Penalty_Charging>  (221) 
0

>  <r_epik_Ionization_Penalty_Neutral>  (221) 
5.95505e-11

>  <r_epik_State_Penalty>  (221) 
-0

>  <r_epik_Charging_Adjusted_Penalty>  (221) 
0

>  <i_epik_Tot_Q>  (221) 
0

>  <i_epik_Tot_abs_Q>  (221) 
0

>  <s_epik_Chemistry_Notes>  (221) 
This compound has an ester and may undergo hydrolysis at high or low pH.

>  <s_lp_Force_Field>  (221) 
OPLS3e

>  <r_lp_Energy>  (221) 
164.309

>  <b_lp_Chiralities_Consistent>  (221) 
0

>  <s_lp_Variant>  (221) 
75:0-1

>  <s_i_glide_gridfile>  (221) 
pfpi4k_grid

>  <i_i_glide_lignum>  (221) 
37

>  <i_i_glide_rotatable_bonds>  (221) 
0

>  <r_i_docking_score>  (221) 
-3.21513

>  <r_i_glide_ligand_efficiency>  (221) 
-0.146142

>  <r_i_glide_ligand_efficiency_sa>  (221) 
-0.409496

>  <r_i_glide_ligand_efficiency_ln>  (221) 
-0.785895

>  <r_i_glide_gscore>  (221) 
-3.21513

>  <r_i_glide_lipo>  (221) 
-0.443233

>  <r_i_glide_hbond>  (221) 
0

>  <r_i_glide_metal>  (221) 
-0

>  <r_i_glide_rewards>  (221) 
-1.4495

>  <r_i_glide_evdw>  (221) 
-26.6647

>  <r_i_glide_ecoul>  (221) 
0.0722287

>  <r_i_glide_erotb>  (221) 
0

>  <r_i_glide_esite>  (221) 
0

>  <r_i_glide_emodel>  (221) 
-31.9169

>  <r_i_glide_energy>  (221) 
-26.5925

>  <r_i_glide_einternal>  (221) 
0

>  <r_i_glide_intrahb_reward>  (221) 
-0

>  <i_i_glide_confnum>  (221) 
2

>  <i_i_glide_posenum>  (221) 
18

>  <r_i_glide_eff_state_penalty>  (221) 
0

>  <ligand_id>  (221) 
75

>  <original_smiles>  (221) 
C=C1CCC2C3(C)OC(=O)CC24Oc2ccccc2CC3C14

>  <smiles>  (221) 
[H]C([H])=C1C([H])([H])C([H])([H])C2([H])C34Oc5c([H])c([H])c([H])c([H])c5C([H])([H])C([H])(C13[H])C2(C([H])([H])[H])OC(=O)C4([H])[H]

$$$$
76:0:0
     RDKit          3D

 37 40  0  0  1  0  0  0  0  0999 V2000
    7.9196   -7.6524    1.5500 O   0  0  0  0  0  0  0  0  0  0  0  0
    7.4229   -6.4208    1.2586 C   0  0  0  0  0  0  0  0  0  0  0  0
    8.0612   -5.1889    1.2343 C   0  0  0  0  0  0  0  0  0  0  0  0
    7.0952   -4.3222    0.8075 C   0  0  0  0  0  0  0  0  0  0  0  0
    7.0940   -2.6438    0.4569 S   0  0  0  0  0  0  0  0  0  0  0  0
    5.3682   -2.8311    0.0656 C   0  0  0  0  0  0  0  0  0  0  0  0
    4.8957   -4.1268    0.1748 C   0  0  0  0  0  0  0  0  0  0  0  0
    5.9507   -4.9671    0.6218 C   0  0  0  0  0  0  0  0  0  0  0  0
    6.0809   -6.2578    0.8929 N   0  0  0  0  0  0  0  0  0  0  0  0
    4.9775   -7.1723    0.7386 C   0  0  0  0  0  0  0  0  0  0  0  0
    4.2046   -7.3794    2.0614 C   0  0  2  0  0  0  0  0  0  0  0  0
    4.9984   -8.2159    3.1276 C   0  0  0  0  0  0  0  0  0  0  0  0
    4.2474   -9.4559    3.4641 N   0  0  2  0  0  0  0  0  0  0  0  0
    4.0103  -10.2648    2.2330 C   0  0  0  0  0  0  0  0  0  0  0  0
    3.1219   -9.4790    1.2324 C   0  0  0  0  0  0  0  0  0  0  0  0
    2.8505   -8.0691    1.8007 C   0  0  1  0  0  0  0  0  0  0  0  0
    2.1188   -8.2347    3.1549 C   0  0  0  0  0  0  0  0  0  0  0  0
    2.9602   -9.1116    4.1188 C   0  0  0  0  0  0  0  0  0  0  0  0
    8.8698   -7.5713    1.6083 H   0  0  0  0  0  0  0  0  0  0  0  0
    9.0833   -4.9207    1.4731 H   0  0  0  0  0  0  0  0  0  0  0  0
    4.8200   -1.9640   -0.2259 H   0  0  0  0  0  0  0  0  0  0  0  0
    3.8888   -4.4716   -0.0366 H   0  0  0  0  0  0  0  0  0  0  0  0
    4.3603   -6.8615   -0.1102 H   0  0  0  0  0  0  0  0  0  0  0  0
    5.4308   -8.1189    0.4521 H   0  0  0  0  0  0  0  0  0  0  0  0
    3.9957   -6.3936    2.4893 H   0  0  0  0  0  0  0  0  0  0  0  0
    5.9780   -8.5469    2.7968 H   0  0  0  0  0  0  0  0  0  0  0  0
    5.1743   -7.6204    4.0254 H   0  0  0  0  0  0  0  0  0  0  0  0
    4.9655  -10.5293    1.7722 H   0  0  0  0  0  0  0  0  0  0  0  0
    3.5328  -11.2061    2.4906 H   0  0  0  0  0  0  0  0  0  0  0  0
    3.5944   -9.4654    0.2478 H   0  0  0  0  0  0  0  0  0  0  0  0
    2.1762   -9.9926    1.0738 H   0  0  0  0  0  0  0  0  0  0  0  0
    2.2460   -7.4787    1.1156 H   0  0  0  0  0  0  0  0  0  0  0  0
    1.9225   -7.2604    3.6051 H   0  0  0  0  0  0  0  0  0  0  0  0
    1.1493   -8.7052    2.9914 H   0  0  0  0  0  0  0  0  0  0  0  0
    2.4331  -10.0278    4.3897 H   0  0  0  0  0  0  0  0  0  0  0  0
    3.1603   -8.5824    5.0513 H   0  0  0  0  0  0  0  0  0  0  0  0
    4.7961  -10.0041    4.1071 H   0  0  0  0  0  0  0  0  0  0  0  0
  1  2  1  0
  1 19  1  0
  2  9  1  0
  2  3  2  0
  3  4  1  0
  3 20  1  0
  4  8  2  0
  4  5  1  0
  5  6  1  0
  6  7  2  0
  6 21  1  0
  7  8  1  0
  7 22  1  0
  8  9  1  0
  9 10  1  0
 10 11  1  0
 10 23  1  0
 10 24  1  0
 11 16  1  0
 11 12  1  0
 11 25  1  1
 12 13  1  0
 12 26  1  0
 12 27  1  0
 13 18  1  0
 13 14  1  0
 13 37  1  1
 14 15  1  0
 14 28  1  0
 14 29  1  0
 15 16  1  0
 15 30  1  0
 15 31  1  0
 16 17  1  0
 16 32  1  6
 17 18  1  0
 17 33  1  0
 17 34  1  0
 18 35  1  0
 18 36  1  0
M  CHG  1  13   1
M  END
>  <i_m_ct_stereo_status>  (222) 
1

>  <s_m_source_file>  (222) 
/var/tmp/pbs.5076255.sched01/tmp2djcgp0g/84b3bpyveh.sdf

>  <i_m_source_file_index>  (222) 
38

>  <i_lp_mmshare_version>  (222) 
48012

>  <i_f3d_flags>  (222) 
0

>  <s_epik_input>  (222) 
czFbY0hdW2NIXWMoYzEyKW4oYyhbT0hdKVtjSF0yKVtDSDJdW0NASF0oW0NIMl1OMzQpW0NIXShbQ0gyXVtDSDJdMylbQ0gyXVtDSDJdNA==

>  <s_epik_cmdline>  (222) 
J2VwaWtfcHl0aG9uJywgJy1waHQnLCAnMi4wJywgJy1waCcsICc3LjAnLCAnLXRuJywgJzgnLCAnLW1hJywgJzIwMCcsICctaW1hZScsICc8aW5maWxlLm1hZT4nLCAnLW9tYWUnLCAnPG91dGZpbGUubWFlPic=

>  <r_epik_Ionization_Penalty>  (222) 
0.0220854

>  <r_epik_Ionization_Penalty_Charging>  (222) 
0.000646466

>  <r_epik_Ionization_Penalty_Neutral>  (222) 
0.0214389

>  <r_epik_State_Penalty>  (222) 
0.0172419

>  <r_epik_Charging_Adjusted_Penalty>  (222) 
0.0178883

>  <i_epik_Tot_Q>  (222) 
1

>  <i_epik_Tot_abs_Q>  (222) 
1

>  <s_lp_Force_Field>  (222) 
OPLS3e

>  <r_lp_Energy>  (222) 
23.5918

>  <b_lp_Chiralities_Consistent>  (222) 
1

>  <s_lp_Variant>  (222) 
76:0-1

>  <s_i_glide_gridfile>  (222) 
pfpi4k_grid

>  <i_i_glide_lignum>  (222) 
38

>  <i_i_glide_rotatable_bonds>  (222) 
3

>  <r_i_docking_score>  (222) 
-3.75694

>  <r_i_glide_ligand_efficiency>  (222) 
-0.208719

>  <r_i_glide_ligand_efficiency_sa>  (222) 
-0.546999

>  <r_i_glide_ligand_efficiency_ln>  (222) 
-0.965703

>  <r_i_glide_gscore>  (222) 
-3.75694

>  <r_i_glide_lipo>  (222) 
-0.659194

>  <r_i_glide_hbond>  (222) 
-0.16

>  <r_i_glide_metal>  (222) 
-0

>  <r_i_glide_rewards>  (222) 
-1.69489

>  <r_i_glide_evdw>  (222) 
-18.3417

>  <r_i_glide_ecoul>  (222) 
-5.5364

>  <r_i_glide_erotb>  (222) 
0.511981

>  <r_i_glide_esite>  (222) 
-0.00729802

>  <r_i_glide_emodel>  (222) 
-30.7148

>  <r_i_glide_energy>  (222) 
-23.8781

>  <r_i_glide_einternal>  (222) 
0.529112

>  <r_i_glide_intrahb_reward>  (222) 
-0

>  <i_i_glide_confnum>  (222) 
6

>  <i_i_glide_posenum>  (222) 
23

>  <r_i_glide_eff_state_penalty>  (222) 
0

>  <ligand_id>  (222) 
76

>  <original_smiles>  (222) 
Oc1cc2sccc2n1CC1CN2CCC1CC2

>  <smiles>  (222) 
[H]Oc1c([H])c2sc([H])c([H])c2n1C([H])([H])C1([H])C2([H])C([H])([H])C([H])([H])[N+]([H])(C([H])([H])C2([H])[H])C1([H])[H]

$$$$
76:0:1
     RDKit          3D

 37 40  0  0  1  0  0  0  0  0999 V2000
    6.4880   -2.4055    1.0113 O   0  0  0  0  0  0  0  0  0  0  0  0
    5.7073   -2.2156   -0.0850 C   0  0  0  0  0  0  0  0  0  0  0  0
    5.2947   -1.0245   -0.6579 C   0  0  0  0  0  0  0  0  0  0  0  0
    4.6086   -1.4142   -1.7770 C   0  0  0  0  0  0  0  0  0  0  0  0
    3.8444   -0.5696   -3.0802 S   0  0  0  0  0  0  0  0  0  0  0  0
    3.4292   -2.1548   -3.7530 C   0  0  0  0  0  0  0  0  0  0  0  0
    3.8857   -3.2147   -2.9981 C   0  0  0  0  0  0  0  0  0  0  0  0
    4.5658   -2.7430   -1.8471 C   0  0  0  0  0  0  0  0  0  0  0  0
    5.1932   -3.2990   -0.8051 N   0  0  0  0  0  0  0  0  0  0  0  0
    5.2874   -4.7224   -0.6059 C   0  0  0  0  0  0  0  0  0  0  0  0
    4.1728   -5.2820    0.3149 C   0  0  2  0  0  0  0  0  0  0  0  0
    4.1651   -4.6363    1.7426 C   0  0  0  0  0  0  0  0  0  0  0  0
    4.4131   -5.6790    2.7731 N   0  0  2  0  0  0  0  0  0  0  0  0
    5.6949   -6.3980    2.5071 C   0  0  0  0  0  0  0  0  0  0  0  0
    5.6300   -7.1506    1.1532 C   0  0  0  0  0  0  0  0  0  0  0  0
    4.2870   -6.8206    0.4575 C   0  0  1  0  0  0  0  0  0  0  0  0
    3.1532   -7.3069    1.3924 C   0  0  0  0  0  0  0  0  0  0  0  0
    3.2851   -6.6408    2.7901 C   0  0  0  0  0  0  0  0  0  0  0  0
    6.4411   -3.3179    1.2601 H   0  0  0  0  0  0  0  0  0  0  0  0
    5.5021   -0.0262   -0.2865 H   0  0  0  0  0  0  0  0  0  0  0  0
    2.8647   -2.1738   -4.6569 H   0  0  0  0  0  0  0  0  0  0  0  0
    3.7437   -4.2546   -3.2427 H   0  0  0  0  0  0  0  0  0  0  0  0
    5.2946   -5.2104   -1.5751 H   0  0  0  0  0  0  0  0  0  0  0  0
    6.2759   -4.8816   -0.1672 H   0  0  0  0  0  0  0  0  0  0  0  0
    3.2240   -5.0574   -0.1832 H   0  0  0  0  0  0  0  0  0  0  0  0
    4.9371   -3.8908    1.8975 H   0  0  0  0  0  0  0  0  0  0  0  0
    3.2030   -4.1436    1.9189 H   0  0  0  0  0  0  0  0  0  0  0  0
    6.5241   -5.6932    2.5078 H   0  0  0  0  0  0  0  0  0  0  0  0
    5.9051   -7.0991    3.3119 H   0  0  0  0  0  0  0  0  0  0  0  0
    6.4871   -6.8762    0.5336 H   0  0  0  0  0  0  0  0  0  0  0  0
    5.7201   -8.2281    1.3061 H   0  0  0  0  0  0  0  0  0  0  0  0
    4.2226   -7.3071   -0.5180 H   0  0  0  0  0  0  0  0  0  0  0  0
    2.1785   -7.0751    0.9577 H   0  0  0  0  0  0  0  0  0  0  0  0
    3.1963   -8.3922    1.5000 H   0  0  0  0  0  0  0  0  0  0  0  0
    3.4456   -7.3797    3.5742 H   0  0  0  0  0  0  0  0  0  0  0  0
    2.3739   -6.1037    3.0494 H   0  0  0  0  0  0  0  0  0  0  0  0
    4.4790   -5.2236    3.6713 H   0  0  0  0  0  0  0  0  0  0  0  0
  1  2  1  0
  1 19  1  0
  2  9  1  0
  2  3  2  0
  3  4  1  0
  3 20  1  0
  4  8  2  0
  4  5  1  0
  5  6  1  0
  6  7  2  0
  6 21  1  0
  7  8  1  0
  7 22  1  0
  8  9  1  0
  9 10  1  0
 10 11  1  0
 10 23  1  0
 10 24  1  0
 11 16  1  0
 11 12  1  0
 11 25  1  6
 12 13  1  0
 12 26  1  0
 12 27  1  0
 13 18  1  0
 13 14  1  0
 13 37  1  1
 14 15  1  0
 14 28  1  0
 14 29  1  0
 15 16  1  0
 15 30  1  0
 15 31  1  0
 16 17  1  0
 16 32  1  6
 17 18  1  0
 17 33  1  0
 17 34  1  0
 18 35  1  0
 18 36  1  0
M  CHG  1  13   1
M  END
>  <i_m_ct_stereo_status>  (223) 
1

>  <s_m_source_file>  (223) 
/var/tmp/pbs.5076255.sched01/tmp2djcgp0g/84b3bpyveh.sdf

>  <i_m_source_file_index>  (223) 
38

>  <i_lp_mmshare_version>  (223) 
48012

>  <i_f3d_flags>  (223) 
0

>  <s_epik_input>  (223) 
czFbY0hdW2NIXWMoYzEyKW4oYyhbT0hdKVtjSF0yKVtDSDJdW0NASF0oW0NIMl1OMzQpW0NIXShbQ0gyXVtDSDJdMylbQ0gyXVtDSDJdNA==

>  <s_epik_cmdline>  (223) 
J2VwaWtfcHl0aG9uJywgJy1waHQnLCAnMi4wJywgJy1waCcsICc3LjAnLCAnLXRuJywgJzgnLCAnLW1hJywgJzIwMCcsICctaW1hZScsICc8aW5maWxlLm1hZT4nLCAnLW9tYWUnLCAnPG91dGZpbGUubWFlPic=

>  <r_epik_Ionization_Penalty>  (223) 
0.0220854

>  <r_epik_Ionization_Penalty_Charging>  (223) 
0.000646466

>  <r_epik_Ionization_Penalty_Neutral>  (223) 
0.0214389

>  <r_epik_State_Penalty>  (223) 
0.0172419

>  <r_epik_Charging_Adjusted_Penalty>  (223) 
0.0178883

>  <i_epik_Tot_Q>  (223) 
1

>  <i_epik_Tot_abs_Q>  (223) 
1

>  <s_lp_Force_Field>  (223) 
OPLS3e

>  <r_lp_Energy>  (223) 
23.5918

>  <b_lp_Chiralities_Consistent>  (223) 
1

>  <s_lp_Variant>  (223) 
76:0-1

>  <s_i_glide_gridfile>  (223) 
pfpi4k_grid

>  <i_i_glide_lignum>  (223) 
38

>  <i_i_glide_rotatable_bonds>  (223) 
3

>  <r_i_docking_score>  (223) 
-3.45023

>  <r_i_glide_ligand_efficiency>  (223) 
-0.191679

>  <r_i_glide_ligand_efficiency_sa>  (223) 
-0.502342

>  <r_i_glide_ligand_efficiency_ln>  (223) 
-0.886863

>  <r_i_glide_gscore>  (223) 
-3.45023

>  <r_i_glide_lipo>  (223) 
-0.704794

>  <r_i_glide_hbond>  (223) 
0

>  <r_i_glide_metal>  (223) 
-0

>  <r_i_glide_rewards>  (223) 
-1.68977

>  <r_i_glide_evdw>  (223) 
-21.317

>  <r_i_glide_ecoul>  (223) 
-3.3453

>  <r_i_glide_erotb>  (223) 
0.511981

>  <r_i_glide_esite>  (223) 
0

>  <r_i_glide_emodel>  (223) 
-30.7022

>  <r_i_glide_energy>  (223) 
-24.6623

>  <r_i_glide_einternal>  (223) 
0.554569

>  <r_i_glide_intrahb_reward>  (223) 
-0

>  <i_i_glide_confnum>  (223) 
2

>  <i_i_glide_posenum>  (223) 
11

>  <r_i_glide_eff_state_penalty>  (223) 
0

>  <ligand_id>  (223) 
76

>  <original_smiles>  (223) 
Oc1cc2sccc2n1CC1CN2CCC1CC2

>  <smiles>  (223) 
[H]Oc1c([H])c2sc([H])c([H])c2n1C([H])([H])C1([H])C2([H])C([H])([H])C([H])([H])[N+]([H])(C([H])([H])C2([H])[H])C1([H])[H]

$$$$
76:0:2
     RDKit          3D

 37 40  0  0  1  0  0  0  0  0999 V2000
    7.3611   -6.5038    1.1658 O   0  0  0  0  0  0  0  0  0  0  0  0
    6.5880   -5.4334    0.8562 C   0  0  0  0  0  0  0  0  0  0  0  0
    6.9466   -4.0958    0.8206 C   0  0  0  0  0  0  0  0  0  0  0  0
    5.8092   -3.4605    0.4055 C   0  0  0  0  0  0  0  0  0  0  0  0
    5.4260   -1.8162    0.0444 S   0  0  0  0  0  0  0  0  0  0  0  0
    3.8028   -2.3955   -0.3643 C   0  0  0  0  0  0  0  0  0  0  0  0
    3.6119   -3.7597   -0.2263 C   0  0  0  0  0  0  0  0  0  0  0  0
    4.8224   -4.3460    0.2324 C   0  0  0  0  0  0  0  0  0  0  0  0
    5.2290   -5.5872    0.5273 N   0  0  0  0  0  0  0  0  0  0  0  0
    4.3587   -6.7407    0.4426 C   0  0  0  0  0  0  0  0  0  0  0  0
    3.7004   -7.1036    1.8006 C   0  0  2  0  0  0  0  0  0  0  0  0
    4.7470   -7.6003    2.8645 C   0  0  0  0  0  0  0  0  0  0  0  0
    4.4189   -8.9936    3.2732 N   0  0  2  0  0  0  0  0  0  0  0  0
    4.4040   -9.8950    2.0852 C   0  0  0  0  0  0  0  0  0  0  0  0
    3.2959   -9.4616    1.0887 C   0  0  0  0  0  0  0  0  0  0  0  0
    2.6087   -8.1818    1.6132 C   0  0  1  0  0  0  0  0  0  0  0  0
    2.0040   -8.5066    2.9997 C   0  0  0  0  0  0  0  0  0  0  0  0
    3.1025   -9.0358    3.9604 C   0  0  0  0  0  0  0  0  0  0  0  0
    6.8057   -7.2705    1.2222 H   0  0  0  0  0  0  0  0  0  0  0  0
    7.9183   -3.6545    1.0602 H   0  0  0  0  0  0  0  0  0  0  0  0
    3.0926   -1.6688   -0.6885 H   0  0  0  0  0  0  0  0  0  0  0  0
    2.6974   -4.3062   -0.4351 H   0  0  0  0  0  0  0  0  0  0  0  0
    3.6157   -6.5452   -0.3310 H   0  0  0  0  0  0  0  0  0  0  0  0
    4.9885   -7.5541    0.0744 H   0  0  0  0  0  0  0  0  0  0  0  0
    3.2082   -6.1964    2.1683 H   0  0  0  0  0  0  0  0  0  0  0  0
    5.7677   -7.6360    2.5027 H   0  0  0  0  0  0  0  0  0  0  0  0
    4.7154   -6.9319    3.7363 H   0  0  0  0  0  0  0  0  0  0  0  0
    5.3720   -9.8821    1.5877 H   0  0  0  0  0  0  0  0  0  0  0  0
    4.2565  -10.9266    2.4019 H   0  0  0  0  0  0  0  0  0  0  0  0
    3.7090   -9.3596    0.0803 H   0  0  0  0  0  0  0  0  0  0  0  0
    2.5491  -10.2388    0.9961 H   0  0  0  0  0  0  0  0  0  0  0  0
    1.8293   -7.8469    0.9259 H   0  0  0  0  0  0  0  0  0  0  0  0
    1.5346   -7.6164    3.4225 H   0  0  0  0  0  0  0  0  0  0  0  0
    1.2207   -9.2574    2.8981 H   0  0  0  0  0  0  0  0  0  0  0  0
    2.8944  -10.0538    4.2934 H   0  0  0  0  0  0  0  0  0  0  0  0
    3.1612   -8.4232    4.8590 H   0  0  0  0  0  0  0  0  0  0  0  0
    5.1295   -9.3110    3.9124 H   0  0  0  0  0  0  0  0  0  0  0  0
  1  2  1  0
  1 19  1  0
  2  9  1  0
  2  3  2  0
  3  4  1  0
  3 20  1  0
  4  8  2  0
  4  5  1  0
  5  6  1  0
  6  7  2  0
  6 21  1  0
  7  8  1  0
  7 22  1  0
  8  9  1  0
  9 10  1  0
 10 11  1  0
 10 23  1  0
 10 24  1  0
 11 16  1  0
 11 12  1  0
 11 25  1  1
 12 13  1  0
 12 26  1  0
 12 27  1  0
 13 18  1  0
 13 14  1  0
 13 37  1  1
 14 15  1  0
 14 28  1  0
 14 29  1  0
 15 16  1  0
 15 30  1  0
 15 31  1  0
 16 17  1  0
 16 32  1  6
 17 18  1  0
 17 33  1  0
 17 34  1  0
 18 35  1  0
 18 36  1  0
M  CHG  1  13   1
M  END
>  <i_m_ct_stereo_status>  (224) 
1

>  <s_m_source_file>  (224) 
/var/tmp/pbs.5076255.sched01/tmp2djcgp0g/84b3bpyveh.sdf

>  <i_m_source_file_index>  (224) 
38

>  <i_lp_mmshare_version>  (224) 
48012

>  <i_f3d_flags>  (224) 
0

>  <s_epik_input>  (224) 
czFbY0hdW2NIXWMoYzEyKW4oYyhbT0hdKVtjSF0yKVtDSDJdW0NASF0oW0NIMl1OMzQpW0NIXShbQ0gyXVtDSDJdMylbQ0gyXVtDSDJdNA==

>  <s_epik_cmdline>  (224) 
J2VwaWtfcHl0aG9uJywgJy1waHQnLCAnMi4wJywgJy1waCcsICc3LjAnLCAnLXRuJywgJzgnLCAnLW1hJywgJzIwMCcsICctaW1hZScsICc8aW5maWxlLm1hZT4nLCAnLW9tYWUnLCAnPG91dGZpbGUubWFlPic=

>  <r_epik_Ionization_Penalty>  (224) 
0.0220854

>  <r_epik_Ionization_Penalty_Charging>  (224) 
0.000646466

>  <r_epik_Ionization_Penalty_Neutral>  (224) 
0.0214389

>  <r_epik_State_Penalty>  (224) 
0.0172419

>  <r_epik_Charging_Adjusted_Penalty>  (224) 
0.0178883

>  <i_epik_Tot_Q>  (224) 
1

>  <i_epik_Tot_abs_Q>  (224) 
1

>  <s_lp_Force_Field>  (224) 
OPLS3e

>  <r_lp_Energy>  (224) 
23.5918

>  <b_lp_Chiralities_Consistent>  (224) 
1

>  <s_lp_Variant>  (224) 
76:0-1

>  <s_i_glide_gridfile>  (224) 
pfpi4k_grid

>  <i_i_glide_lignum>  (224) 
38

>  <i_i_glide_rotatable_bonds>  (224) 
3

>  <r_i_docking_score>  (224) 
-3.13122

>  <r_i_glide_ligand_efficiency>  (224) 
-0.173957

>  <r_i_glide_ligand_efficiency_sa>  (224) 
-0.455895

>  <r_i_glide_ligand_efficiency_ln>  (224) 
-0.804864

>  <r_i_glide_gscore>  (224) 
-3.13122

>  <r_i_glide_lipo>  (224) 
-0.517073

>  <r_i_glide_hbond>  (224) 
0

>  <r_i_glide_metal>  (224) 
-0

>  <r_i_glide_rewards>  (224) 
-1.75751

>  <r_i_glide_evdw>  (224) 
-18.9267

>  <r_i_glide_ecoul>  (224) 
-2.78055

>  <r_i_glide_erotb>  (224) 
0.511981

>  <r_i_glide_esite>  (224) 
-0.00519778

>  <r_i_glide_emodel>  (224) 
-27.334

>  <r_i_glide_energy>  (224) 
-21.7073

>  <r_i_glide_einternal>  (224) 
0.268118

>  <r_i_glide_intrahb_reward>  (224) 
-0

>  <i_i_glide_confnum>  (224) 
6

>  <i_i_glide_posenum>  (224) 
2

>  <r_i_glide_eff_state_penalty>  (224) 
0

>  <ligand_id>  (224) 
76

>  <original_smiles>  (224) 
Oc1cc2sccc2n1CC1CN2CCC1CC2

>  <smiles>  (224) 
[H]Oc1c([H])c2sc([H])c([H])c2n1C([H])([H])C1([H])C2([H])C([H])([H])C([H])([H])[N+]([H])(C([H])([H])C2([H])[H])C1([H])[H]

$$$$
76:1:0
     RDKit          3D

 36 39  0  0  1  0  0  0  0  0999 V2000
    0.4277   -1.2262    6.5967 O   0  0  0  0  0  0  0  0  0  0  0  0
   -0.2416   -0.1078    7.0481 C   0  0  0  0  0  0  0  0  0  0  0  0
   -0.2341    0.4425    8.3154 C   0  0  0  0  0  0  0  0  0  0  0  0
   -1.1016    1.4717    8.2313 C   0  0  0  0  0  0  0  0  0  0  0  0
   -1.7535    2.5604    9.3998 S   0  0  0  0  0  0  0  0  0  0  0  0
   -2.7115    3.2594    8.0687 C   0  0  0  0  0  0  0  0  0  0  0  0
   -2.4956    2.6535    6.8349 C   0  0  0  0  0  0  0  0  0  0  0  0
   -1.5619    1.5851    6.9940 C   0  0  0  0  0  0  0  0  0  0  0  0
   -1.0397    0.6557    6.1833 N   0  0  0  0  0  0  0  0  0  0  0  0
   -1.3497    0.6388    4.7353 C   0  0  0  0  0  0  0  0  0  0  0  0
   -0.3449    1.4713    3.8757 C   0  0  2  0  0  0  0  0  0  0  0  0
   -0.5920    1.2916    2.3467 C   0  0  0  0  0  0  0  0  0  0  0  0
    0.6408    0.7646    1.6685 N   0  0  1  0  0  0  0  0  0  0  0  0
    1.7522    1.7458    1.7810 C   0  0  0  0  0  0  0  0  0  0  0  0
    2.0452    2.0490    3.2730 C   0  0  0  0  0  0  0  0  0  0  0  0
    1.1538    1.1494    4.1579 C   0  0  2  0  0  0  0  0  0  0  0  0
    1.4375   -0.3329    3.7505 C   0  0  0  0  0  0  0  0  0  0  0  0
    1.0839   -0.5247    2.2658 C   0  0  0  0  0  0  0  0  0  0  0  0
    0.2858    0.1085    9.2282 H   0  0  0  0  0  0  0  0  0  0  0  0
   -3.3530    4.0674    8.3445 H   0  0  0  0  0  0  0  0  0  0  0  0
   -2.9704    2.9393    5.9030 H   0  0  0  0  0  0  0  0  0  0  0  0
   -1.3220   -0.4020    4.4317 H   0  0  0  0  0  0  0  0  0  0  0  0
   -2.3746    0.9580    4.5760 H   0  0  0  0  0  0  0  0  0  0  0  0
   -0.5076    2.5312    4.1120 H   0  0  0  0  0  0  0  0  0  0  0  0
   -1.4377    0.6349    2.1495 H   0  0  0  0  0  0  0  0  0  0  0  0
   -0.8600    2.2509    1.8916 H   0  0  0  0  0  0  0  0  0  0  0  0
    2.6386    1.3437    1.2809 H   0  0  0  0  0  0  0  0  0  0  0  0
    1.4875    2.6719    1.2777 H   0  0  0  0  0  0  0  0  0  0  0  0
    3.0935    1.8419    3.4926 H   0  0  0  0  0  0  0  0  0  0  0  0
    1.8990    3.1090    3.4911 H   0  0  0  0  0  0  0  0  0  0  0  0
    1.4035    1.3361    5.1975 H   0  0  0  0  0  0  0  0  0  0  0  0
    2.4857   -0.5782    3.9517 H   0  0  0  0  0  0  0  0  0  0  0  0
    0.8370   -1.0539    4.2975 H   0  0  0  0  0  0  0  0  0  0  0  0
    0.2593   -1.2231    2.2248 H   0  0  0  0  0  0  0  0  0  0  0  0
    1.9058   -0.9712    1.7057 H   0  0  0  0  0  0  0  0  0  0  0  0
    0.4190    0.6044    0.6895 H   0  0  0  0  0  0  0  0  0  0  0  0
  1  2  1  0
  2  9  1  0
  2  3  2  0
  3  4  1  0
  3 19  1  0
  4  8  2  0
  4  5  1  0
  5  6  1  0
  6  7  2  0
  6 20  1  0
  7  8  1  0
  7 21  1  0
  8  9  1  0
  9 10  1  0
 10 11  1  0
 10 22  1  0
 10 23  1  0
 11 16  1  0
 11 12  1  0
 11 24  1  1
 12 13  1  0
 12 25  1  0
 12 26  1  0
 13 18  1  0
 13 14  1  0
 13 36  1  6
 14 15  1  0
 14 27  1  0
 14 28  1  0
 15 16  1  0
 15 29  1  0
 15 30  1  0
 16 17  1  0
 16 31  1  1
 17 18  1  0
 17 32  1  0
 17 33  1  0
 18 34  1  0
 18 35  1  0
M  CHG  2   1  -1  13   1
M  END
>  <i_m_ct_stereo_status>  (225) 
1

>  <s_m_source_file>  (225) 
/var/tmp/pbs.5076255.sched01/tmp2djcgp0g/84b3bpyveh.sdf

>  <i_m_source_file_index>  (225) 
39

>  <i_lp_mmshare_version>  (225) 
48012

>  <i_f3d_flags>  (225) 
0

>  <s_epik_input>  (225) 
czFbY0hdW2NIXWMoYzEyKW4oYyhbT0hdKVtjSF0yKVtDSDJdW0NASF0oW0NIMl1OMzQpW0NIXShbQ0gyXVtDSDJdMylbQ0gyXVtDSDJdNA==

>  <s_epik_cmdline>  (225) 
J2VwaWtfcHl0aG9uJywgJy1waHQnLCAnMi4wJywgJy1waCcsICc3LjAnLCAnLXRuJywgJzgnLCAnLW1hJywgJzIwMCcsICctaW1hZScsICc8aW5maWxlLm1hZT4nLCAnLW9tYWUnLCAnPG91dGZpbGUubWFlPic=

>  <r_epik_Ionization_Penalty>  (225) 
1.97786

>  <r_epik_Ionization_Penalty_Charging>  (225) 
1.97786

>  <r_epik_Ionization_Penalty_Neutral>  (225) 
0

>  <r_epik_State_Penalty>  (225) 
2.10421

>  <r_epik_Charging_Adjusted_Penalty>  (225) 
4.08208

>  <i_epik_Tot_Q>  (225) 
0

>  <i_epik_Tot_abs_Q>  (225) 
2

>  <s_lp_Force_Field>  (225) 
OPLS3e

>  <r_lp_Energy>  (225) 
19.961

>  <b_lp_Chiralities_Consistent>  (225) 
1

>  <s_lp_Variant>  (225) 
76:0-2

>  <s_i_glide_gridfile>  (225) 
pfpi4k_grid

>  <i_i_glide_lignum>  (225) 
39

>  <i_i_glide_rotatable_bonds>  (225) 
2

>  <r_i_docking_score>  (225) 
-3.71063

>  <r_i_glide_ligand_efficiency>  (225) 
-0.206146

>  <r_i_glide_ligand_efficiency_sa>  (225) 
-0.540256

>  <r_i_glide_ligand_efficiency_ln>  (225) 
-0.9538

>  <r_i_glide_gscore>  (225) 
-3.71063

>  <r_i_glide_lipo>  (225) 
-0.258298

>  <r_i_glide_hbond>  (225) 
-0.25671

>  <r_i_glide_metal>  (225) 
-0

>  <r_i_glide_rewards>  (225) 
-1.62019

>  <r_i_glide_evdw>  (225) 
-15.8142

>  <r_i_glide_ecoul>  (225) 
-7.7945

>  <r_i_glide_erotb>  (225) 
0.515377

>  <r_i_glide_esite>  (225) 
-0.130926

>  <r_i_glide_emodel>  (225) 
-30.7763

>  <r_i_glide_energy>  (225) 
-23.6087

>  <r_i_glide_einternal>  (225) 
2.18783

>  <r_i_glide_intrahb_reward>  (225) 
-0

>  <i_i_glide_confnum>  (225) 
4

>  <i_i_glide_posenum>  (225) 
12

>  <r_i_glide_eff_state_penalty>  (225) 
0

>  <ligand_id>  (225) 
76

>  <original_smiles>  (225) 
Oc1cc2sccc2n1CC1CN2CCC1CC2

>  <smiles>  (225) 
[H]c1sc2c([H])c([O-])n(C([H])([H])C3([H])C4([H])C([H])([H])C([H])([H])[N+]([H])(C([H])([H])C4([H])[H])C3([H])[H])c2c1[H]

$$$$
76:1:1
     RDKit          3D

 36 39  0  0  1  0  0  0  0  0999 V2000
    6.5584   -2.0368    0.9956 O   0  0  0  0  0  0  0  0  0  0  0  0
    5.7586   -1.9773   -0.0881 C   0  0  0  0  0  0  0  0  0  0  0  0
    5.2802   -0.8487   -0.7139 C   0  0  0  0  0  0  0  0  0  0  0  0
    4.6137   -1.3081   -1.8192 C   0  0  0  0  0  0  0  0  0  0  0  0
    3.8108   -0.5673   -3.1577 S   0  0  0  0  0  0  0  0  0  0  0  0
    3.4835   -2.2002   -3.7658 C   0  0  0  0  0  0  0  0  0  0  0  0
    3.9787   -3.2023   -2.9476 C   0  0  0  0  0  0  0  0  0  0  0  0
    4.6353   -2.6404   -1.8228 C   0  0  0  0  0  0  0  0  0  0  0  0
    5.2904   -3.1168   -0.7492 N   0  0  0  0  0  0  0  0  0  0  0  0
    5.4360   -4.5305   -0.4806 C   0  0  0  0  0  0  0  0  0  0  0  0
    4.4009   -5.0637    0.5392 C   0  0  2  0  0  0  0  0  0  0  0  0
    4.5733   -4.4334    1.9570 C   0  0  0  0  0  0  0  0  0  0  0  0
    4.8906   -5.4851    2.9551 N   0  0  1  0  0  0  0  0  0  0  0  0
    3.7411   -6.4082    3.0966 C   0  0  0  0  0  0  0  0  0  0  0  0
    3.4376   -7.0678    1.7220 C   0  0  0  0  0  0  0  0  0  0  0  0
    4.4785   -6.6086    0.6679 C   0  0  2  0  0  0  0  0  0  0  0  0
    5.8810   -6.9789    1.2127 C   0  0  0  0  0  0  0  0  0  0  0  0
    6.1142   -6.2389    2.5545 C   0  0  0  0  0  0  0  0  0  0  0  0
    5.4455    0.1466   -0.3933 H   0  0  0  0  0  0  0  0  0  0  0  0
    2.9207   -2.2913   -4.6767 H   0  0  0  0  0  0  0  0  0  0  0  0
    3.8678   -4.2464   -3.1467 H   0  0  0  0  0  0  0  0  0  0  0  0
    5.3922   -5.0737   -1.4217 H   0  0  0  0  0  0  0  0  0  0  0  0
    6.4489   -4.6451   -0.0987 H   0  0  0  0  0  0  0  0  0  0  0  0
    3.4136   -4.8076    0.1477 H   0  0  0  0  0  0  0  0  0  0  0  0
    5.4097   -3.7465    2.0224 H   0  0  0  0  0  0  0  0  0  0  0  0
    3.6708   -3.8886    2.2413 H   0  0  0  0  0  0  0  0  0  0  0  0
    3.9641   -7.1565    3.8617 H   0  0  0  0  0  0  0  0  0  0  0  0
    2.8789   -5.8411    3.4535 H   0  0  0  0  0  0  0  0  0  0  0  0
    3.4615   -8.1531    1.8265 H   0  0  0  0  0  0  0  0  0  0  0  0
    2.4299   -6.8058    1.3952 H   0  0  0  0  0  0  0  0  0  0  0  0
    4.2899   -7.0909   -0.2959 H   0  0  0  0  0  0  0  0  0  0  0  0
    5.9628   -8.0585    1.3469 H   0  0  0  0  0  0  0  0  0  0  0  0
    6.6655   -6.7132    0.5017 H   0  0  0  0  0  0  0  0  0  0  0  0
    6.9597   -5.5559    2.4698 H   0  0  0  0  0  0  0  0  0  0  0  0
    6.3843   -6.9525    3.3332 H   0  0  0  0  0  0  0  0  0  0  0  0
    5.0710   -5.0274    3.8353 H   0  0  0  0  0  0  0  0  0  0  0  0
  1  2  1  0
  2  9  1  0
  2  3  2  0
  3  4  1  0
  3 19  1  0
  4  8  2  0
  4  5  1  0
  5  6  1  0
  6  7  2  0
  6 20  1  0
  7  8  1  0
  7 21  1  0
  8  9  1  0
  9 10  1  0
 10 11  1  0
 10 22  1  0
 10 23  1  0
 11 16  1  0
 11 12  1  0
 11 24  1  6
 12 13  1  0
 12 25  1  0
 12 26  1  0
 13 18  1  0
 13 14  1  0
 13 36  1  1
 14 15  1  0
 14 27  1  0
 14 28  1  0
 15 16  1  0
 15 29  1  0
 15 30  1  0
 16 17  1  0
 16 31  1  6
 17 18  1  0
 17 32  1  0
 17 33  1  0
 18 34  1  0
 18 35  1  0
M  CHG  2   1  -1  13   1
M  END
>  <i_m_ct_stereo_status>  (226) 
1

>  <s_m_source_file>  (226) 
/var/tmp/pbs.5076255.sched01/tmp2djcgp0g/84b3bpyveh.sdf

>  <i_m_source_file_index>  (226) 
39

>  <i_lp_mmshare_version>  (226) 
48012

>  <i_f3d_flags>  (226) 
0

>  <s_epik_input>  (226) 
czFbY0hdW2NIXWMoYzEyKW4oYyhbT0hdKVtjSF0yKVtDSDJdW0NASF0oW0NIMl1OMzQpW0NIXShbQ0gyXVtDSDJdMylbQ0gyXVtDSDJdNA==

>  <s_epik_cmdline>  (226) 
J2VwaWtfcHl0aG9uJywgJy1waHQnLCAnMi4wJywgJy1waCcsICc3LjAnLCAnLXRuJywgJzgnLCAnLW1hJywgJzIwMCcsICctaW1hZScsICc8aW5maWxlLm1hZT4nLCAnLW9tYWUnLCAnPG91dGZpbGUubWFlPic=

>  <r_epik_Ionization_Penalty>  (226) 
1.97786

>  <r_epik_Ionization_Penalty_Charging>  (226) 
1.97786

>  <r_epik_Ionization_Penalty_Neutral>  (226) 
0

>  <r_epik_State_Penalty>  (226) 
2.10421

>  <r_epik_Charging_Adjusted_Penalty>  (226) 
4.08208

>  <i_epik_Tot_Q>  (226) 
0

>  <i_epik_Tot_abs_Q>  (226) 
2

>  <s_lp_Force_Field>  (226) 
OPLS3e

>  <r_lp_Energy>  (226) 
19.961

>  <b_lp_Chiralities_Consistent>  (226) 
1

>  <s_lp_Variant>  (226) 
76:0-2

>  <s_i_glide_gridfile>  (226) 
pfpi4k_grid

>  <i_i_glide_lignum>  (226) 
39

>  <i_i_glide_rotatable_bonds>  (226) 
2

>  <r_i_docking_score>  (226) 
-3.09126

>  <r_i_glide_ligand_efficiency>  (226) 
-0.171737

>  <r_i_glide_ligand_efficiency_sa>  (226) 
-0.450077

>  <r_i_glide_ligand_efficiency_ln>  (226) 
-0.794592

>  <r_i_glide_gscore>  (226) 
-3.09126

>  <r_i_glide_lipo>  (226) 
-0.704241

>  <r_i_glide_hbond>  (226) 
0

>  <r_i_glide_metal>  (226) 
-0

>  <r_i_glide_rewards>  (226) 
-1.67017

>  <r_i_glide_evdw>  (226) 
-19.5178

>  <r_i_glide_ecoul>  (226) 
-1.70886

>  <r_i_glide_erotb>  (226) 
0.515377

>  <r_i_glide_esite>  (226) 
0

>  <r_i_glide_emodel>  (226) 
-28.0639

>  <r_i_glide_energy>  (226) 
-21.2267

>  <r_i_glide_einternal>  (226) 
0.60527

>  <r_i_glide_intrahb_reward>  (226) 
-0

>  <i_i_glide_confnum>  (226) 
2

>  <i_i_glide_posenum>  (226) 
4

>  <r_i_glide_eff_state_penalty>  (226) 
0

>  <ligand_id>  (226) 
76

>  <original_smiles>  (226) 
Oc1cc2sccc2n1CC1CN2CCC1CC2

>  <smiles>  (226) 
[H]c1sc2c([H])c([O-])n(C([H])([H])C3([H])C4([H])C([H])([H])C([H])([H])[N+]([H])(C([H])([H])C4([H])[H])C3([H])[H])c2c1[H]

$$$$
76:1:2
     RDKit          3D

 36 39  0  0  1  0  0  0  0  0999 V2000
    2.0044   -3.5116    3.2622 O   0  0  0  0  0  0  0  0  0  0  0  0
    2.6337   -3.0888    2.1528 C   0  0  0  0  0  0  0  0  0  0  0  0
    2.9958   -3.8079    1.0188 C   0  0  0  0  0  0  0  0  0  0  0  0
    3.5908   -2.8798    0.2050 C   0  0  0  0  0  0  0  0  0  0  0  0
    4.2869   -2.9500   -1.3642 S   0  0  0  0  0  0  0  0  0  0  0  0
    4.6259   -1.2151   -1.1961 C   0  0  0  0  0  0  0  0  0  0  0  0
    4.2103   -0.6747    0.0177 C   0  0  0  0  0  0  0  0  0  0  0  0
    3.6048   -1.6908    0.8045 C   0  0  0  0  0  0  0  0  0  0  0  0
    3.0213   -1.7549    2.0085 N   0  0  0  0  0  0  0  0  0  0  0  0
    2.8910   -0.6247    2.8893 C   0  0  0  0  0  0  0  0  0  0  0  0
    1.4373   -0.1032    2.9385 C   0  0  2  0  0  0  0  0  0  0  0  0
    1.1037    0.7599    1.6896 C   0  0  0  0  0  0  0  0  0  0  0  0
    0.7663    2.1486    2.1129 N   0  0  1  0  0  0  0  0  0  0  0  0
   -0.4829    2.1283    2.9184 C   0  0  0  0  0  0  0  0  0  0  0  0
   -0.2883    1.2454    4.1780 C   0  0  0  0  0  0  0  0  0  0  0  0
    1.1655    0.7173    4.2240 C   0  0  2  0  0  0  0  0  0  0  0  0
    2.1105    1.9389    4.2153 C   0  0  0  0  0  0  0  0  0  0  0  0
    1.8853    2.7384    2.9034 C   0  0  0  0  0  0  0  0  0  0  0  0
    2.8525   -4.8543    0.7989 H   0  0  0  0  0  0  0  0  0  0  0  0
    5.0863   -0.7043   -2.0185 H   0  0  0  0  0  0  0  0  0  0  0  0
    4.3057    0.3588    0.3141 H   0  0  0  0  0  0  0  0  0  0  0  0
    3.1966   -0.9819    3.8713 H   0  0  0  0  0  0  0  0  0  0  0  0
    3.6069    0.1446    2.5937 H   0  0  0  0  0  0  0  0  0  0  0  0
    0.7617   -0.9642    2.9630 H   0  0  0  0  0  0  0  0  0  0  0  0
    1.9284    0.7675    0.9775 H   0  0  0  0  0  0  0  0  0  0  0  0
    0.2572    0.3188    1.1680 H   0  0  0  0  0  0  0  0  0  0  0  0
   -0.7409    3.1517    3.1898 H   0  0  0  0  0  0  0  0  0  0  0  0
   -1.3092    1.7574    2.3095 H   0  0  0  0  0  0  0  0  0  0  0  0
   -0.5006    1.8275    5.0743 H   0  0  0  0  0  0  0  0  0  0  0  0
   -1.0031    0.4208    4.1773 H   0  0  0  0  0  0  0  0  0  0  0  0
    1.3148    0.1080    5.1153 H   0  0  0  0  0  0  0  0  0  0  0  0
    1.9326    2.5621    5.0915 H   0  0  0  0  0  0  0  0  0  0  0  0
    3.1533    1.6288    4.2999 H   0  0  0  0  0  0  0  0  0  0  0  0
    2.7944    2.7496    2.3009 H   0  0  0  0  0  0  0  0  0  0  0  0
    1.6519    3.7770    3.1308 H   0  0  0  0  0  0  0  0  0  0  0  0
    0.5941    2.7523    1.3124 H   0  0  0  0  0  0  0  0  0  0  0  0
  1  2  1  0
  2  9  1  0
  2  3  2  0
  3  4  1  0
  3 19  1  0
  4  8  2  0
  4  5  1  0
  5  6  1  0
  6  7  2  0
  6 20  1  0
  7  8  1  0
  7 21  1  0
  8  9  1  0
  9 10  1  0
 10 11  1  0
 10 22  1  0
 10 23  1  0
 11 16  1  0
 11 12  1  0
 11 24  1  1
 12 13  1  0
 12 25  1  0
 12 26  1  0
 13 18  1  0
 13 14  1  0
 13 36  1  6
 14 15  1  0
 14 27  1  0
 14 28  1  0
 15 16  1  0
 15 29  1  0
 15 30  1  0
 16 17  1  0
 16 31  1  1
 17 18  1  0
 17 32  1  0
 17 33  1  0
 18 34  1  0
 18 35  1  0
M  CHG  2   1  -1  13   1
M  END
>  <i_m_ct_stereo_status>  (227) 
1

>  <s_m_source_file>  (227) 
/var/tmp/pbs.5076255.sched01/tmp2djcgp0g/84b3bpyveh.sdf

>  <i_m_source_file_index>  (227) 
39

>  <i_lp_mmshare_version>  (227) 
48012

>  <i_f3d_flags>  (227) 
0

>  <s_epik_input>  (227) 
czFbY0hdW2NIXWMoYzEyKW4oYyhbT0hdKVtjSF0yKVtDSDJdW0NASF0oW0NIMl1OMzQpW0NIXShbQ0gyXVtDSDJdMylbQ0gyXVtDSDJdNA==

>  <s_epik_cmdline>  (227) 
J2VwaWtfcHl0aG9uJywgJy1waHQnLCAnMi4wJywgJy1waCcsICc3LjAnLCAnLXRuJywgJzgnLCAnLW1hJywgJzIwMCcsICctaW1hZScsICc8aW5maWxlLm1hZT4nLCAnLW9tYWUnLCAnPG91dGZpbGUubWFlPic=

>  <r_epik_Ionization_Penalty>  (227) 
1.97786

>  <r_epik_Ionization_Penalty_Charging>  (227) 
1.97786

>  <r_epik_Ionization_Penalty_Neutral>  (227) 
0

>  <r_epik_State_Penalty>  (227) 
2.10421

>  <r_epik_Charging_Adjusted_Penalty>  (227) 
4.08208

>  <i_epik_Tot_Q>  (227) 
0

>  <i_epik_Tot_abs_Q>  (227) 
2

>  <s_lp_Force_Field>  (227) 
OPLS3e

>  <r_lp_Energy>  (227) 
19.961

>  <b_lp_Chiralities_Consistent>  (227) 
1

>  <s_lp_Variant>  (227) 
76:0-2

>  <s_i_glide_gridfile>  (227) 
pfpi4k_grid

>  <i_i_glide_lignum>  (227) 
39

>  <i_i_glide_rotatable_bonds>  (227) 
2

>  <r_i_docking_score>  (227) 
-2.63446

>  <r_i_glide_ligand_efficiency>  (227) 
-0.146359

>  <r_i_glide_ligand_efficiency_sa>  (227) 
-0.383569

>  <r_i_glide_ligand_efficiency_ln>  (227) 
-0.677174

>  <r_i_glide_gscore>  (227) 
-2.63446

>  <r_i_glide_lipo>  (227) 
-0.0103804

>  <r_i_glide_hbond>  (227) 
-0.192714

>  <r_i_glide_metal>  (227) 
-0

>  <r_i_glide_rewards>  (227) 
-1.62019

>  <r_i_glide_evdw>  (227) 
-17.7563

>  <r_i_glide_ecoul>  (227) 
-2.21875

>  <r_i_glide_erotb>  (227) 
0.515377

>  <r_i_glide_esite>  (227) 
-0.10592

>  <r_i_glide_emodel>  (227) 
-26.1879

>  <r_i_glide_energy>  (227) 
-19.9751

>  <r_i_glide_einternal>  (227) 
0.230363

>  <r_i_glide_intrahb_reward>  (227) 
-0

>  <i_i_glide_confnum>  (227) 
1

>  <i_i_glide_posenum>  (227) 
5

>  <r_i_glide_eff_state_penalty>  (227) 
0

>  <ligand_id>  (227) 
76

>  <original_smiles>  (227) 
Oc1cc2sccc2n1CC1CN2CCC1CC2

>  <smiles>  (227) 
[H]c1sc2c([H])c([O-])n(C([H])([H])C3([H])C4([H])C([H])([H])C([H])([H])[N+]([H])(C([H])([H])C4([H])[H])C3([H])[H])c2c1[H]

$$$$
77:0:0
     RDKit          3D

 56 61  0  0  1  0  0  0  0  0999 V2000
   -0.0780   -5.2336    5.5859 C   0  0  0  0  0  0  0  0  0  0  0  0
    0.6663   -5.6426    4.4622 O   0  0  0  0  0  0  0  0  0  0  0  0
    1.4345   -6.7390    4.4939 C   0  0  0  0  0  0  0  0  0  0  0  0
    1.4534   -7.5319    5.4425 O   0  0  0  0  0  0  0  0  0  0  0  0
    2.2582   -6.8851    3.2640 C   0  0  0  0  0  0  0  0  0  0  0  0
    3.0900   -7.9101    3.0800 C   0  0  0  0  0  0  0  0  0  0  0  0
    3.8579   -7.7967    1.7939 C   0  0  0  0  0  0  0  0  0  0  0  0
    3.6404   -6.3160    1.3683 C   0  0  1  0  0  0  0  0  0  0  0  0
    2.3223   -5.8999    2.1074 C   0  0  1  0  0  0  0  0  0  0  0  0
    1.1068   -6.2370    1.2146 C   0  0  0  0  0  0  0  0  0  0  0  0
    2.3426   -4.3988    2.4986 C   0  0  0  0  0  0  0  0  0  0  0  0
    3.0376   -3.5644    1.4293 C   0  0  0  0  0  0  0  0  0  0  0  0
    4.5413   -3.8971    1.2719 C   0  0  2  0  0  0  0  0  0  0  0  0
    5.1540   -3.4689   -0.0980 C   0  0  1  0  0  0  0  0  0  0  0  0
    4.6270   -4.2570   -1.2056 O   0  0  0  0  0  0  0  0  0  0  0  0
    3.7095   -3.4482   -1.9450 C   0  0  1  0  0  0  0  0  0  0  0  0
    4.0480   -2.0763   -1.5817 C   0  0  0  0  0  0  0  0  0  0  0  0
    4.8102   -2.0275   -0.4866 C   0  0  0  0  0  0  0  0  0  0  0  0
    5.3892   -0.8248    0.2448 C   0  0  0  0  0  0  0  0  0  0  0  0
    3.8601   -1.1736   -2.7255 C   0  0  0  0  0  0  0  0  0  0  0  0
    4.0983    0.0230   -2.7885 O   0  0  0  0  0  0  0  0  0  0  0  0
    3.5011   -2.0094   -3.8967 C   0  0  1  0  0  0  0  0  0  0  0  0
    4.5524   -2.8842   -4.3072 O   0  0  0  0  0  0  0  0  0  0  0  0
    3.5723   -3.4527   -3.4492 C   0  0  1  0  0  0  0  0  0  0  0  0
    6.6806   -3.7168   -0.0475 C   0  0  0  0  0  0  0  0  0  0  0  0
    7.4837   -2.9119   -0.5304 O   0  0  0  0  0  0  0  0  0  0  0  0
    7.0198   -4.8881    0.5175 O   0  0  0  0  0  0  0  0  0  0  0  0
    6.0453   -5.8887    0.7652 C   0  0  0  0  0  0  0  0  0  0  0  0
    4.8785   -5.3859    1.6303 C   0  0  2  0  0  0  0  0  0  0  0  0
    5.3811   -5.4537    3.0972 C   0  0  0  0  0  0  0  0  0  0  0  0
   -0.5594   -4.2855    5.3442 H   0  0  0  0  0  0  0  0  0  0  0  0
    0.5556   -5.0691    6.4582 H   0  0  0  0  0  0  0  0  0  0  0  0
   -0.8554   -5.9593    5.8186 H   0  0  0  0  0  0  0  0  0  0  0  0
    3.2084   -8.7521    3.7442 H   0  0  0  0  0  0  0  0  0  0  0  0
    4.8983   -8.0915    1.8973 H   0  0  0  0  0  0  0  0  0  0  0  0
    3.3927   -8.4660    1.0646 H   0  0  0  0  0  0  0  0  0  0  0  0
    3.4567   -6.2877    0.2940 H   0  0  0  0  0  0  0  0  0  0  0  0
    1.1204   -5.6473    0.2982 H   0  0  0  0  0  0  0  0  0  0  0  0
    0.1786   -6.0343    1.7518 H   0  0  0  0  0  0  0  0  0  0  0  0
    1.0789   -7.2870    0.9301 H   0  0  0  0  0  0  0  0  0  0  0  0
    1.3343   -4.0141    2.6047 H   0  0  0  0  0  0  0  0  0  0  0  0
    2.8037   -4.2201    3.4628 H   0  0  0  0  0  0  0  0  0  0  0  0
    2.4944   -3.6474    0.4980 H   0  0  0  0  0  0  0  0  0  0  0  0
    2.9537   -2.5106    1.7106 H   0  0  0  0  0  0  0  0  0  0  0  0
    5.0570   -3.2699    2.0046 H   0  0  0  0  0  0  0  0  0  0  0  0
    2.7089   -3.6515   -1.5608 H   0  0  0  0  0  0  0  0  0  0  0  0
    6.4746   -0.8446    0.3853 H   0  0  0  0  0  0  0  0  0  0  0  0
    4.9386   -0.7861    1.2389 H   0  0  0  0  0  0  0  0  0  0  0  0
    5.1150    0.1049   -0.2532 H   0  0  0  0  0  0  0  0  0  0  0  0
    2.7802   -1.6938   -4.6534 H   0  0  0  0  0  0  0  0  0  0  0  0
    2.9524   -4.2134   -3.9340 H   0  0  0  0  0  0  0  0  0  0  0  0
    5.6622   -6.2396   -0.1907 H   0  0  0  0  0  0  0  0  0  0  0  0
    6.5146   -6.7550    1.2340 H   0  0  0  0  0  0  0  0  0  0  0  0
    6.2682   -4.8251    3.2090 H   0  0  0  0  0  0  0  0  0  0  0  0
    5.6746   -6.4617    3.3943 H   0  0  0  0  0  0  0  0  0  0  0  0
    4.6624   -5.0936    3.8306 H   0  0  0  0  0  0  0  0  0  0  0  0
  1  2  1  0
  1 31  1  0
  1 32  1  0
  1 33  1  0
  2  3  1  0
  3  4  2  0
  3  5  1  0
  5  9  1  0
  5  6  2  0
  6  7  1  0
  6 34  1  0
  7  8  1  0
  7 35  1  0
  7 36  1  0
  8 29  1  0
  8  9  1  0
  8 37  1  6
  9 10  1  6
  9 11  1  0
 10 38  1  0
 10 39  1  0
 10 40  1  0
 11 12  1  0
 11 41  1  0
 11 42  1  0
 12 13  1  0
 12 43  1  0
 12 44  1  0
 13 29  1  0
 13 14  1  0
 13 45  1  1
 14 18  1  0
 14 15  1  6
 14 25  1  0
 15 16  1  0
 16 24  1  0
 16 17  1  0
 16 46  1  1
 17 18  2  0
 17 20  1  0
 18 19  1  0
 19 47  1  0
 19 48  1  0
 19 49  1  0
 20 21  2  0
 20 22  1  0
 22 24  1  0
 22 23  1  0
 22 50  1  6
 23 24  1  0
 24 51  1  6
 25 26  2  0
 25 27  1  0
 27 28  1  0
 28 29  1  0
 28 52  1  0
 28 53  1  0
 29 30  1  1
 30 54  1  0
 30 55  1  0
 30 56  1  0
M  END
>  <i_m_ct_stereo_status>  (228) 
1

>  <s_m_source_file>  (228) 
/var/tmp/pbs.5076255.sched01/tmp2djcgp0g/84b3bpyveh.sdf

>  <i_m_source_file_index>  (228) 
40

>  <i_lp_mmshare_version>  (228) 
48012

>  <i_f3d_flags>  (228) 
0

>  <s_epik_input>  (228) 
W0NIM11PQyg9TylDKD1bQ0hdW0NIMl0xKVtDQEBdKFtDSDNdKShbQ0gyXVtDSDJdMilbQ0BIXTFbQ0BAXShbQ0gzXSkoW0NIMl1PQzM9TylbQ0BIXTJbQ0BdMzRPW0NASF01Qyg9QzRbQ0gzXSlDKD1PKVtDQEBIXTZbQ0BIXTVPNg==

>  <s_epik_cmdline>  (228) 
J2VwaWtfcHl0aG9uJywgJy1waHQnLCAnMi4wJywgJy1waCcsICc3LjAnLCAnLXRuJywgJzgnLCAnLW1hJywgJzIwMCcsICctaW1hZScsICc8aW5maWxlLm1hZT4nLCAnLW9tYWUnLCAnPG91dGZpbGUubWFlPic=

>  <r_lp_tautomer_probability>  (228) 
1

>  <r_epik_Ionization_Penalty>  (228) 
3.94675e-16

>  <r_epik_Ionization_Penalty_Charging>  (228) 
0

>  <r_epik_Ionization_Penalty_Neutral>  (228) 
3.94675e-16

>  <r_epik_State_Penalty>  (228) 
-0

>  <r_epik_Charging_Adjusted_Penalty>  (228) 
0

>  <i_epik_Tot_Q>  (228) 
0

>  <i_epik_Tot_abs_Q>  (228) 
0

>  <s_epik_Chemistry_Notes>  (228) 
This compound has an ester and may undergo hydrolysis at high or low pH.

>  <s_lp_Force_Field>  (228) 
OPLS3e

>  <r_lp_Energy>  (228) 
42.6555

>  <b_lp_Chiralities_Consistent>  (228) 
1

>  <s_lp_Variant>  (228) 
77:0-1

>  <s_i_glide_gridfile>  (228) 
pfpi4k_grid

>  <i_i_glide_lignum>  (228) 
40

>  <i_i_glide_rotatable_bonds>  (228) 
2

>  <r_i_docking_score>  (228) 
-3.4646

>  <r_i_glide_ligand_efficiency>  (228) 
-0.115487

>  <r_i_glide_ligand_efficiency_sa>  (228) 
-0.358844

>  <r_i_glide_ligand_efficiency_ln>  (228) 
-0.787195

>  <r_i_glide_gscore>  (228) 
-3.4646

>  <r_i_glide_lipo>  (228) 
-0.565812

>  <r_i_glide_hbond>  (228) 
-0.222664

>  <r_i_glide_metal>  (228) 
-0

>  <r_i_glide_rewards>  (228) 
-0.724013

>  <r_i_glide_evdw>  (228) 
-30.7612

>  <r_i_glide_ecoul>  (228) 
-3.34062

>  <r_i_glide_erotb>  (228) 
0.114909

>  <r_i_glide_esite>  (228) 
-0.0278635

>  <r_i_glide_emodel>  (228) 
-39.0578

>  <r_i_glide_energy>  (228) 
-34.1019

>  <r_i_glide_einternal>  (228) 
2.87361

>  <r_i_glide_intrahb_reward>  (228) 
-0

>  <i_i_glide_confnum>  (228) 
2

>  <i_i_glide_posenum>  (228) 
38

>  <r_i_glide_eff_state_penalty>  (228) 
0

>  <ligand_id>  (228) 
77

>  <original_smiles>  (228) 
COC(=O)C1=CCC2C1(C)CCC1C3(OC4C(=C3C)C(=O)C3OC34)C(=O)OCC21C

>  <smiles>  (228) 
[H]C1=C(C(=O)OC([H])([H])[H])C2(C([H])([H])[H])C([H])([H])C([H])([H])C3([H])C4(OC5([H])C(=C4C([H])([H])[H])C(=O)C4([H])OC45[H])C(=O)OC([H])([H])C3(C([H])([H])[H])C2([H])C1([H])[H]

$$$$
77:0:1
     RDKit          3D

 56 61  0  0  1  0  0  0  0  0999 V2000
   -0.1199   -8.6949    5.9649 C   0  0  0  0  0  0  0  0  0  0  0  0
    0.9273   -8.5629    5.0201 O   0  0  0  0  0  0  0  0  0  0  0  0
    0.9325   -7.5078    4.1837 C   0  0  0  0  0  0  0  0  0  0  0  0
    0.1169   -6.5852    4.2391 O   0  0  0  0  0  0  0  0  0  0  0  0
    2.0118   -7.5991    3.1570 C   0  0  0  0  0  0  0  0  0  0  0  0
    2.8758   -8.6092    3.0652 C   0  0  0  0  0  0  0  0  0  0  0  0
    3.8680   -8.4143    1.9560 C   0  0  0  0  0  0  0  0  0  0  0  0
    3.7081   -6.9087    1.5983 C   0  0  1  0  0  0  0  0  0  0  0  0
    2.2658   -6.5355    2.1011 C   0  0  1  0  0  0  0  0  0  0  0  0
    1.2290   -6.7649    0.9765 C   0  0  0  0  0  0  0  0  0  0  0  0
    2.1836   -5.0680    2.5796 C   0  0  0  0  0  0  0  0  0  0  0  0
    3.0722   -4.1702    1.7033 C   0  0  0  0  0  0  0  0  0  0  0  0
    4.5892   -4.4986    1.8098 C   0  0  2  0  0  0  0  0  0  0  0  0
    5.4586   -3.9895    0.6114 C   0  0  1  0  0  0  0  0  0  0  0  0
    5.1494   -4.7152   -0.6100 O   0  0  0  0  0  0  0  0  0  0  0  0
    4.3970   -3.8607   -1.4618 C   0  0  1  0  0  0  0  0  0  0  0  0
    4.6307   -2.5106   -0.9516 C   0  0  0  0  0  0  0  0  0  0  0  0
    5.1873   -2.5204    0.2582 C   0  0  0  0  0  0  0  0  0  0  0  0
    5.5921   -1.3488    1.1376 C   0  0  0  0  0  0  0  0  0  0  0  0
    4.5996   -1.5370   -2.0503 C   0  0  0  0  0  0  0  0  0  0  0  0
    4.6085   -0.3163   -1.9876 O   0  0  0  0  0  0  0  0  0  0  0  0
    4.6250   -2.3126   -3.3113 C   0  0  1  0  0  0  0  0  0  0  0  0
    5.8113   -3.1313   -3.4485 O   0  0  0  0  0  0  0  0  0  0  0  0
    4.6355   -3.7762   -2.9405 C   0  0  1  0  0  0  0  0  0  0  0  0
    6.9588   -4.2671    0.9143 C   0  0  0  0  0  0  0  0  0  0  0  0
    7.8322   -3.4448    0.6397 O   0  0  0  0  0  0  0  0  0  0  0  0
    7.1892   -5.4681    1.4560 O   0  0  0  0  0  0  0  0  0  0  0  0
    6.1901   -6.4720    1.4898 C   0  0  0  0  0  0  0  0  0  0  0  0
    4.8709   -6.0017    2.1454 C   0  0  2  0  0  0  0  0  0  0  0  0
    5.0833   -6.1409    3.6799 C   0  0  0  0  0  0  0  0  0  0  0  0
    0.0089   -9.5981    6.5620 H   0  0  0  0  0  0  0  0  0  0  0  0
   -1.0833   -8.7648    5.4584 H   0  0  0  0  0  0  0  0  0  0  0  0
   -0.1539   -7.8424    6.6452 H   0  0  0  0  0  0  0  0  0  0  0  0
    2.8910   -9.5004    3.6771 H   0  0  0  0  0  0  0  0  0  0  0  0
    4.8734   -8.7134    2.2402 H   0  0  0  0  0  0  0  0  0  0  0  0
    3.5623   -9.0397    1.1120 H   0  0  0  0  0  0  0  0  0  0  0  0
    3.7322   -6.8119    0.5115 H   0  0  0  0  0  0  0  0  0  0  0  0
    1.4152   -6.1305    0.1090 H   0  0  0  0  0  0  0  0  0  0  0  0
    0.2073   -6.6019    1.3213 H   0  0  0  0  0  0  0  0  0  0  0  0
    1.2572   -7.8007    0.6366 H   0  0  0  0  0  0  0  0  0  0  0  0
    1.1555   -4.7192    2.5147 H   0  0  0  0  0  0  0  0  0  0  0  0
    2.4376   -4.9539    3.6257 H   0  0  0  0  0  0  0  0  0  0  0  0
    2.7146   -4.2087    0.6836 H   0  0  0  0  0  0  0  0  0  0  0  0
    2.9243   -3.1310    2.0128 H   0  0  0  0  0  0  0  0  0  0  0  0
    4.9457   -3.9120    2.6551 H   0  0  0  0  0  0  0  0  0  0  0  0
    3.3419   -4.0829   -1.3125 H   0  0  0  0  0  0  0  0  0  0  0  0
    6.6236   -1.3952    1.4919 H   0  0  0  0  0  0  0  0  0  0  0  0
    4.9479   -1.3621    2.0189 H   0  0  0  0  0  0  0  0  0  0  0  0
    5.4395   -0.3885    0.6417 H   0  0  0  0  0  0  0  0  0  0  0  0
    4.0901   -2.0109   -4.2112 H   0  0  0  0  0  0  0  0  0  0  0  0
    4.2213   -4.5215   -3.6187 H   0  0  0  0  0  0  0  0  0  0  0  0
    5.9933   -6.8090    0.4779 H   0  0  0  0  0  0  0  0  0  0  0  0
    6.5820   -7.3459    2.0104 H   0  0  0  0  0  0  0  0  0  0  0  0
    5.9249   -5.5199    4.0004 H   0  0  0  0  0  0  0  0  0  0  0  0
    5.3199   -7.1612    3.9784 H   0  0  0  0  0  0  0  0  0  0  0  0
    4.2300   -5.8227    4.2737 H   0  0  0  0  0  0  0  0  0  0  0  0
  1  2  1  0
  1 31  1  0
  1 32  1  0
  1 33  1  0
  2  3  1  0
  3  4  2  0
  3  5  1  0
  5  9  1  0
  5  6  2  0
  6  7  1  0
  6 34  1  0
  7  8  1  0
  7 35  1  0
  7 36  1  0
  8 29  1  0
  8  9  1  0
  8 37  1  6
  9 10  1  6
  9 11  1  0
 10 38  1  0
 10 39  1  0
 10 40  1  0
 11 12  1  0
 11 41  1  0
 11 42  1  0
 12 13  1  0
 12 43  1  0
 12 44  1  0
 13 29  1  0
 13 14  1  0
 13 45  1  1
 14 18  1  0
 14 15  1  6
 14 25  1  0
 15 16  1  0
 16 24  1  0
 16 17  1  0
 16 46  1  6
 17 18  2  0
 17 20  1  0
 18 19  1  0
 19 47  1  0
 19 48  1  0
 19 49  1  0
 20 21  2  0
 20 22  1  0
 22 24  1  0
 22 23  1  0
 22 50  1  6
 23 24  1  0
 24 51  1  6
 25 26  2  0
 25 27  1  0
 27 28  1  0
 28 29  1  0
 28 52  1  0
 28 53  1  0
 29 30  1  1
 30 54  1  0
 30 55  1  0
 30 56  1  0
M  END
>  <i_m_ct_stereo_status>  (229) 
1

>  <s_m_source_file>  (229) 
/var/tmp/pbs.5076255.sched01/tmp2djcgp0g/84b3bpyveh.sdf

>  <i_m_source_file_index>  (229) 
40

>  <i_lp_mmshare_version>  (229) 
48012

>  <i_f3d_flags>  (229) 
0

>  <s_epik_input>  (229) 
W0NIM11PQyg9TylDKD1bQ0hdW0NIMl0xKVtDQEBdKFtDSDNdKShbQ0gyXVtDSDJdMilbQ0BIXTFbQ0BAXShbQ0gzXSkoW0NIMl1PQzM9TylbQ0BIXTJbQ0BdMzRPW0NASF01Qyg9QzRbQ0gzXSlDKD1PKVtDQEBIXTZbQ0BIXTVPNg==

>  <s_epik_cmdline>  (229) 
J2VwaWtfcHl0aG9uJywgJy1waHQnLCAnMi4wJywgJy1waCcsICc3LjAnLCAnLXRuJywgJzgnLCAnLW1hJywgJzIwMCcsICctaW1hZScsICc8aW5maWxlLm1hZT4nLCAnLW9tYWUnLCAnPG91dGZpbGUubWFlPic=

>  <r_lp_tautomer_probability>  (229) 
1

>  <r_epik_Ionization_Penalty>  (229) 
3.94675e-16

>  <r_epik_Ionization_Penalty_Charging>  (229) 
0

>  <r_epik_Ionization_Penalty_Neutral>  (229) 
3.94675e-16

>  <r_epik_State_Penalty>  (229) 
-0

>  <r_epik_Charging_Adjusted_Penalty>  (229) 
0

>  <i_epik_Tot_Q>  (229) 
0

>  <i_epik_Tot_abs_Q>  (229) 
0

>  <s_epik_Chemistry_Notes>  (229) 
This compound has an ester and may undergo hydrolysis at high or low pH.

>  <s_lp_Force_Field>  (229) 
OPLS3e

>  <r_lp_Energy>  (229) 
42.6555

>  <b_lp_Chiralities_Consistent>  (229) 
1

>  <s_lp_Variant>  (229) 
77:0-1

>  <s_i_glide_gridfile>  (229) 
pfpi4k_grid

>  <i_i_glide_lignum>  (229) 
40

>  <i_i_glide_rotatable_bonds>  (229) 
2

>  <r_i_docking_score>  (229) 
-2.88144

>  <r_i_glide_ligand_efficiency>  (229) 
-0.0960479

>  <r_i_glide_ligand_efficiency_sa>  (229) 
-0.298443

>  <r_i_glide_ligand_efficiency_ln>  (229) 
-0.654694

>  <r_i_glide_gscore>  (229) 
-2.88144

>  <r_i_glide_lipo>  (229) 
-0.479515

>  <r_i_glide_hbond>  (229) 
0

>  <r_i_glide_metal>  (229) 
-0

>  <r_i_glide_rewards>  (229) 
-0.747212

>  <r_i_glide_evdw>  (229) 
-30.8141

>  <r_i_glide_ecoul>  (229) 
-1.1837

>  <r_i_glide_erotb>  (229) 
0.114909

>  <r_i_glide_esite>  (229) 
-0.0513592

>  <r_i_glide_emodel>  (229) 
-37.5335

>  <r_i_glide_energy>  (229) 
-31.9978

>  <r_i_glide_einternal>  (229) 
0.12584

>  <r_i_glide_intrahb_reward>  (229) 
-0

>  <i_i_glide_confnum>  (229) 
2

>  <i_i_glide_posenum>  (229) 
14

>  <r_i_glide_eff_state_penalty>  (229) 
0

>  <ligand_id>  (229) 
77

>  <original_smiles>  (229) 
COC(=O)C1=CCC2C1(C)CCC1C3(OC4C(=C3C)C(=O)C3OC34)C(=O)OCC21C

>  <smiles>  (229) 
[H]C1=C(C(=O)OC([H])([H])[H])C2(C([H])([H])[H])C([H])([H])C([H])([H])C3([H])C4(OC5([H])C(=C4C([H])([H])[H])C(=O)C4([H])OC45[H])C(=O)OC([H])([H])C3(C([H])([H])[H])C2([H])C1([H])[H]

$$$$
77:0:2
     RDKit          3D

 56 61  0  0  1  0  0  0  0  0999 V2000
    8.8030   -3.9505    0.2964 C   0  0  0  0  0  0  0  0  0  0  0  0
    7.4186   -3.7470    0.4553 O   0  0  0  0  0  0  0  0  0  0  0  0
    6.8880   -2.5205    0.4559 C   0  0  0  0  0  0  0  0  0  0  0  0
    7.5338   -1.4825    0.3026 O   0  0  0  0  0  0  0  0  0  0  0  0
    5.4210   -2.5635    0.6436 C   0  0  0  0  0  0  0  0  0  0  0  0
    4.6560   -1.4749    0.5683 C   0  0  0  0  0  0  0  0  0  0  0  0
    3.2133   -1.7885    0.8324 C   0  0  0  0  0  0  0  0  0  0  0  0
    3.2520   -3.1993    1.4714 C   0  0  1  0  0  0  0  0  0  0  0  0
    4.6075   -3.8138    0.9796 C   0  0  1  0  0  0  0  0  0  0  0  0
    4.3971   -4.5722   -0.3497 C   0  0  0  0  0  0  0  0  0  0  0  0
    5.2251   -4.7620    2.0292 C   0  0  0  0  0  0  0  0  0  0  0  0
    4.1351   -5.5460    2.7607 C   0  0  0  0  0  0  0  0  0  0  0  0
    3.1735   -4.6509    3.5927 C   0  0  2  0  0  0  0  0  0  0  0  0
    1.7976   -5.2978    3.9109 C   0  0  1  0  0  0  0  0  0  0  0  0
    0.9772   -5.4485    2.7146 O   0  0  0  0  0  0  0  0  0  0  0  0
    0.9401   -6.8310    2.3577 C   0  0  1  0  0  0  0  0  0  0  0  0
    1.3528   -7.5348    3.5796 C   0  0  0  0  0  0  0  0  0  0  0  0
    1.9139   -6.7266    4.4623 C   0  0  0  0  0  0  0  0  0  0  0  0
    2.4897   -7.0513    5.8395 C   0  0  0  0  0  0  0  0  0  0  0  0
    0.7154   -8.8466    3.6665 C   0  0  0  0  0  0  0  0  0  0  0  0
    1.0165   -9.7630    4.4301 O   0  0  0  0  0  0  0  0  0  0  0  0
   -0.3884   -8.8700    2.6364 C   0  0  1  0  0  0  0  0  0  0  0  0
   -1.3882   -7.8449    2.7819 O   0  0  0  0  0  0  0  0  0  0  0  0
   -0.3069   -7.5494    1.8876 C   0  0  1  0  0  0  0  0  0  0  0  0
    1.0157   -4.3709    4.8737 C   0  0  0  0  0  0  0  0  0  0  0  0
    0.3664   -4.7920    5.8226 O   0  0  0  0  0  0  0  0  0  0  0  0
    1.0816   -3.0609    4.5438 O   0  0  0  0  0  0  0  0  0  0  0  0
    1.6172   -2.6447    3.2937 C   0  0  0  0  0  0  0  0  0  0  0  0
    3.0377   -3.1975    3.0248 C   0  0  2  0  0  0  0  0  0  0  0  0
    4.0163   -2.2563    3.7722 C   0  0  0  0  0  0  0  0  0  0  0  0
    9.0026   -5.0202    0.3665 H   0  0  0  0  0  0  0  0  0  0  0  0
    9.3753   -3.4500    1.0780 H   0  0  0  0  0  0  0  0  0  0  0  0
    9.1328   -3.6112   -0.6847 H   0  0  0  0  0  0  0  0  0  0  0  0
    4.9889   -0.4795    0.3144 H   0  0  0  0  0  0  0  0  0  0  0  0
    2.7174   -1.0242    1.4316 H   0  0  0  0  0  0  0  0  0  0  0  0
    2.6952   -1.8426   -0.1264 H   0  0  0  0  0  0  0  0  0  0  0  0
    2.4379   -3.7896    1.0467 H   0  0  0  0  0  0  0  0  0  0  0  0
    3.7415   -5.4338   -0.2365 H   0  0  0  0  0  0  0  0  0  0  0  0
    5.3400   -4.9290   -0.7687 H   0  0  0  0  0  0  0  0  0  0  0  0
    3.9550   -3.9231   -1.1059 H   0  0  0  0  0  0  0  0  0  0  0  0
    5.8824   -5.4803    1.5471 H   0  0  0  0  0  0  0  0  0  0  0  0
    5.8593   -4.2430    2.7434 H   0  0  0  0  0  0  0  0  0  0  0  0
    3.5969   -6.1500    2.0324 H   0  0  0  0  0  0  0  0  0  0  0  0
    4.6110   -6.2602    3.4255 H   0  0  0  0  0  0  0  0  0  0  0  0
    3.6668   -4.5569    4.5688 H   0  0  0  0  0  0  0  0  0  0  0  0
    1.7069   -7.0003    1.6077 H   0  0  0  0  0  0  0  0  0  0  0  0
    2.0700   -6.4520    6.6494 H   0  0  0  0  0  0  0  0  0  0  0  0
    3.5628   -6.8584    5.8145 H   0  0  0  0  0  0  0  0  0  0  0  0
    2.3582   -8.1092    6.0964 H   0  0  0  0  0  0  0  0  0  0  0  0
   -0.6039   -9.7595    2.0505 H   0  0  0  0  0  0  0  0  0  0  0  0
   -0.5686   -7.4921    0.8358 H   0  0  0  0  0  0  0  0  0  0  0  0
    0.9333   -2.9506    2.5045 H   0  0  0  0  0  0  0  0  0  0  0  0
    1.6228   -1.5541    3.2614 H   0  0  0  0  0  0  0  0  0  0  0  0
    3.7975   -2.2573    4.8409 H   0  0  0  0  0  0  0  0  0  0  0  0
    3.9344   -1.2205    3.4406 H   0  0  0  0  0  0  0  0  0  0  0  0
    5.0615   -2.5403    3.6719 H   0  0  0  0  0  0  0  0  0  0  0  0
  1  2  1  0
  1 31  1  0
  1 32  1  0
  1 33  1  0
  2  3  1  0
  3  4  2  0
  3  5  1  0
  5  9  1  0
  5  6  2  0
  6  7  1  0
  6 34  1  0
  7  8  1  0
  7 35  1  0
  7 36  1  0
  8 29  1  0
  8  9  1  0
  8 37  1  6
  9 10  1  6
  9 11  1  0
 10 38  1  0
 10 39  1  0
 10 40  1  0
 11 12  1  0
 11 41  1  0
 11 42  1  0
 12 13  1  0
 12 43  1  0
 12 44  1  0
 13 29  1  0
 13 14  1  0
 13 45  1  1
 14 18  1  0
 14 15  1  6
 14 25  1  0
 15 16  1  0
 16 24  1  0
 16 17  1  0
 16 46  1  6
 17 18  2  0
 17 20  1  0
 18 19  1  0
 19 47  1  0
 19 48  1  0
 19 49  1  0
 20 21  2  0
 20 22  1  0
 22 24  1  0
 22 23  1  0
 22 50  1  6
 23 24  1  0
 24 51  1  6
 25 26  2  0
 25 27  1  0
 27 28  1  0
 28 29  1  0
 28 52  1  0
 28 53  1  0
 29 30  1  1
 30 54  1  0
 30 55  1  0
 30 56  1  0
M  END
>  <i_m_ct_stereo_status>  (230) 
1

>  <s_m_source_file>  (230) 
/var/tmp/pbs.5076255.sched01/tmp2djcgp0g/84b3bpyveh.sdf

>  <i_m_source_file_index>  (230) 
40

>  <i_lp_mmshare_version>  (230) 
48012

>  <i_f3d_flags>  (230) 
0

>  <s_epik_input>  (230) 
W0NIM11PQyg9TylDKD1bQ0hdW0NIMl0xKVtDQEBdKFtDSDNdKShbQ0gyXVtDSDJdMilbQ0BIXTFbQ0BAXShbQ0gzXSkoW0NIMl1PQzM9TylbQ0BIXTJbQ0BdMzRPW0NASF01Qyg9QzRbQ0gzXSlDKD1PKVtDQEBIXTZbQ0BIXTVPNg==

>  <s_epik_cmdline>  (230) 
J2VwaWtfcHl0aG9uJywgJy1waHQnLCAnMi4wJywgJy1waCcsICc3LjAnLCAnLXRuJywgJzgnLCAnLW1hJywgJzIwMCcsICctaW1hZScsICc8aW5maWxlLm1hZT4nLCAnLW9tYWUnLCAnPG91dGZpbGUubWFlPic=

>  <r_lp_tautomer_probability>  (230) 
1

>  <r_epik_Ionization_Penalty>  (230) 
3.94675e-16

>  <r_epik_Ionization_Penalty_Charging>  (230) 
0

>  <r_epik_Ionization_Penalty_Neutral>  (230) 
3.94675e-16

>  <r_epik_State_Penalty>  (230) 
-0

>  <r_epik_Charging_Adjusted_Penalty>  (230) 
0

>  <i_epik_Tot_Q>  (230) 
0

>  <i_epik_Tot_abs_Q>  (230) 
0

>  <s_epik_Chemistry_Notes>  (230) 
This compound has an ester and may undergo hydrolysis at high or low pH.

>  <s_lp_Force_Field>  (230) 
OPLS3e

>  <r_lp_Energy>  (230) 
42.6555

>  <b_lp_Chiralities_Consistent>  (230) 
1

>  <s_lp_Variant>  (230) 
77:0-1

>  <s_i_glide_gridfile>  (230) 
pfpi4k_grid

>  <i_i_glide_lignum>  (230) 
40

>  <i_i_glide_rotatable_bonds>  (230) 
2

>  <r_i_docking_score>  (230) 
-2.79297

>  <r_i_glide_ligand_efficiency>  (230) 
-0.0930991

>  <r_i_glide_ligand_efficiency_sa>  (230) 
-0.289281

>  <r_i_glide_ligand_efficiency_ln>  (230) 
-0.634594

>  <r_i_glide_gscore>  (230) 
-2.79297

>  <r_i_glide_lipo>  (230) 
-0.15246

>  <r_i_glide_hbond>  (230) 
-0.069271

>  <r_i_glide_metal>  (230) 
-0

>  <r_i_glide_rewards>  (230) 
-0.732735

>  <r_i_glide_evdw>  (230) 
-30.425

>  <r_i_glide_ecoul>  (230) 
-2.72134

>  <r_i_glide_erotb>  (230) 
0.114909

>  <r_i_glide_esite>  (230) 
-0.0239632

>  <r_i_glide_emodel>  (230) 
-37.2901

>  <r_i_glide_energy>  (230) 
-33.1464

>  <r_i_glide_einternal>  (230) 
2.63554

>  <r_i_glide_intrahb_reward>  (230) 
-0

>  <i_i_glide_confnum>  (230) 
4

>  <i_i_glide_posenum>  (230) 
1

>  <r_i_glide_eff_state_penalty>  (230) 
0

>  <ligand_id>  (230) 
77

>  <original_smiles>  (230) 
COC(=O)C1=CCC2C1(C)CCC1C3(OC4C(=C3C)C(=O)C3OC34)C(=O)OCC21C

>  <smiles>  (230) 
[H]C1=C(C(=O)OC([H])([H])[H])C2(C([H])([H])[H])C([H])([H])C([H])([H])C3([H])C4(OC5([H])C(=C4C([H])([H])[H])C(=O)C4([H])OC45[H])C(=O)OC([H])([H])C3(C([H])([H])[H])C2([H])C1([H])[H]

$$$$
78:1:0
     RDKit          3D

 63 70  0  0  1  0  0  0  0  0999 V2000
    3.4983   -1.1483    3.8345 C   0  0  0  0  0  0  0  0  0  0  0  0
    2.3306   -0.8685    4.4513 C   0  0  0  0  0  0  0  0  0  0  0  0
    0.9335   -0.8503    3.9539 C   0  0  2  0  0  0  0  0  0  0  0  0
    0.8601   -2.3907    3.5357 C   0  0  0  0  0  0  0  0  0  0  0  0
    1.4300   -3.2166    4.8008 C   0  0  0  0  0  0  0  0  0  0  0  0
    1.8973   -2.5685    5.9130 C   0  0  0  0  0  0  0  0  0  0  0  0
    2.2440   -3.5283    7.0005 C   0  0  0  0  0  0  0  0  0  0  0  0
    1.8983   -4.7762    6.3774 O   0  0  0  0  0  0  0  0  0  0  0  0
    1.4152   -4.6390    5.0929 C   0  0  0  0  0  0  0  0  0  0  0  0
    1.0235   -5.5361    4.3488 O   0  0  0  0  0  0  0  0  0  0  0  0
    1.8051   -1.0231    5.8384 C   0  0  1  0  0  0  0  0  0  0  0  0
    2.0798    0.2717    6.6354 C   0  0  1  0  0  0  0  0  0  0  0  0
    3.4051    0.2508    7.1133 O   0  0  0  0  0  0  0  0  0  0  0  0
    1.6500    1.6416    5.7462 C   0  0  1  0  0  0  0  0  0  0  0  0
    0.3233    2.0488    6.3488 C   0  0  0  0  0  0  0  0  0  0  0  0
   -0.6441    2.8766    5.9061 C   0  0  0  0  0  0  0  0  0  0  0  0
   -1.8538    3.0331    6.7813 C   0  0  0  0  0  0  0  0  0  0  0  0
   -2.9633    3.3471    6.3503 O   0  0  0  0  0  0  0  0  0  0  0  0
   -1.6344    2.8056    8.0979 O   0  0  0  0  0  0  0  0  0  0  0  0
   -2.6613    3.0737    9.0450 C   0  0  0  0  0  0  0  0  0  0  0  0
   -0.6873    3.8455    4.7022 C   0  0  2  0  0  0  0  0  0  0  0  0
    0.1281    4.3448    3.6793 O   0  0  0  0  0  0  0  0  0  0  0  0
    0.5336    4.6062    5.4375 C   0  0  0  0  0  0  0  0  0  0  0  0
    0.2609    5.6789    5.9793 O   0  0  0  0  0  0  0  0  0  0  0  0
    1.9289    4.1525    5.4131 O   0  0  0  0  0  0  0  0  0  0  0  0
    2.5381    2.8564    5.7631 C   0  0  2  0  0  0  0  0  0  0  0  0
    3.2669    2.1139    4.6018 C   0  0  1  0  0  0  0  0  0  0  0  0
    4.3399    1.2506    4.8876 O   0  0  0  0  0  0  0  0  0  0  0  0
    1.7994    1.6969    4.0868 C   0  0  2  0  0  0  0  0  0  0  0  0
    1.9644    2.6479    2.8255 C   0  0  0  0  0  0  0  0  0  0  0  0
    0.8840    0.5961    3.3420 C   0  0  2  0  0  0  0  0  0  0  0  0
   -0.5997    1.1941    3.3647 C   0  0  0  0  0  0  0  0  0  0  0  0
   -1.0267    2.7488    3.5053 C   0  0  1  0  0  0  0  0  0  0  0  0
   -2.4392    2.6603    3.6017 O   0  0  0  0  0  0  0  0  0  0  0  0
    0.4057   -0.8927    5.3560 C   0  0  2  0  0  0  0  0  0  0  0  0
   -0.8143   -1.6966    5.8258 C   0  0  0  0  0  0  0  0  0  0  0  0
   -0.7350   -0.3008    6.0085 O   0  0  0  0  0  0  0  0  0  0  0  0
    4.3971   -1.3549    4.4003 H   0  0  0  0  0  0  0  0  0  0  0  0
    3.5739   -1.1531    2.7535 H   0  0  0  0  0  0  0  0  0  0  0  0
   -0.1674   -2.6787    3.3280 H   0  0  0  0  0  0  0  0  0  0  0  0
    1.4522   -2.6185    2.6470 H   0  0  0  0  0  0  0  0  0  0  0  0
    1.6486   -3.3662    7.8969 H   0  0  0  0  0  0  0  0  0  0  0  0
    3.3015   -3.4811    7.2480 H   0  0  0  0  0  0  0  0  0  0  0  0
    1.5064    0.1902    7.5607 H   0  0  0  0  0  0  0  0  0  0  0  0
    3.4919   -0.4500    7.7450 H   0  0  0  0  0  0  0  0  0  0  0  0
    0.1358    1.5664    7.2862 H   0  0  0  0  0  0  0  0  0  0  0  0
   -2.3235    2.7778   10.0358 H   0  0  0  0  0  0  0  0  0  0  0  0
   -3.5850    2.5357    8.8324 H   0  0  0  0  0  0  0  0  0  0  0  0
   -2.8984    4.1369    9.0782 H   0  0  0  0  0  0  0  0  0  0  0  0
   -0.2246    4.1746    2.8110 H   0  0  0  0  0  0  0  0  0  0  0  0
    3.1496    2.9323    6.6638 H   0  0  0  0  0  0  0  0  0  0  0  0
    3.7914    2.9114    4.0736 H   0  0  0  0  0  0  0  0  0  0  0  0
    4.0143    0.6322    5.5396 H   0  0  0  0  0  0  0  0  0  0  0  0
    2.7461    2.2595    2.1675 H   0  0  0  0  0  0  0  0  0  0  0  0
    2.2628    3.6783    3.0078 H   0  0  0  0  0  0  0  0  0  0  0  0
    1.1176    2.6997    2.1503 H   0  0  0  0  0  0  0  0  0  0  0  0
    1.2006    0.5042    2.3028 H   0  0  0  0  0  0  0  0  0  0  0  0
   -1.0132    0.8807    2.4072 H   0  0  0  0  0  0  0  0  0  0  0  0
   -1.2263    0.6409    4.0458 H   0  0  0  0  0  0  0  0  0  0  0  0
   -1.0374    3.1090    2.4654 H   0  0  0  0  0  0  0  0  0  0  0  0
   -2.7525    2.0087    2.9869 H   0  0  0  0  0  0  0  0  0  0  0  0
   -1.5747   -1.9949    5.1087 H   0  0  0  0  0  0  0  0  0  0  0  0
   -0.7613   -2.2628    6.7529 H   0  0  0  0  0  0  0  0  0  0  0  0
  1  2  2  0
  1 38  1  0
  1 39  1  0
  2 11  1  0
  2  3  1  0
  3 31  1  0
  3 35  1  0
  3  4  1  6
  4 40  1  0
  4 41  1  0
  4  5  1  0
  5  6  2  0
  5  9  1  0
 11  6  1  1
  6  7  1  0
  7  8  1  0
  7 42  1  0
  7 43  1  0
  8  9  1  0
  9 10  2  0
 11 12  1  0
 11 35  1  0
 12 13  1  0
 12 14  1  0
 12 44  1  1
 13 45  1  0
 14 26  1  0
 14 29  1  0
 14 15  1  6
 15 16  2  0
 15 46  1  0
 16 17  1  0
 16 21  1  0
 17 18  2  0
 17 19  1  0
 19 20  1  0
 20 47  1  0
 20 48  1  0
 20 49  1  0
 21 33  1  0
 21 22  1  6
 21 23  1  0
 22 50  1  0
 23 24  2  0
 23 25  1  0
 25 26  1  0
 26 27  1  0
 26 51  1  1
 27 28  1  0
 27 29  1  0
 27 52  1  6
 28 53  1  0
 29 30  1  6
 29 31  1  0
 30 54  1  0
 30 55  1  0
 30 56  1  0
 31 32  1  0
 31 57  1  6
 32 33  1  0
 32 58  1  0
 32 59  1  0
 33 34  1  0
 33 60  1  6
 34 61  1  0
 35 37  1  1
 35 36  1  0
 36 37  1  0
 36 62  1  0
 36 63  1  0
M  END
>  <i_m_ct_stereo_status>  (231) 
1

>  <s_m_source_file>  (231) 
/var/tmp/pbs.5076255.sched01/tmp2djcgp0g/84b3bpyveh.sdf

>  <i_m_source_file_index>  (231) 
42

>  <i_lp_mmshare_version>  (231) 
48012

>  <i_f3d_flags>  (231) 
0

>  <s_epik_input>  (231) 
W2NIXTFvYyhbT0hdKWMoW0NIMl0yKWMxW0NAQF0oQzM9W0NIMl0pKFtDQEBdNChbQ0BdMjM1KVtDSDJdTzQpW0NAQEhdKFtPSF0pW0NAXTY3W0NAQEhdOE9DKD1PKVtDQEBdKFtPSF0pKEMoPVtDSF02KUMoPU8pT1tDSDNdKVtDQEhdKFtPSF0pW0NIMl1bQ0BIXTVbQ0BdNyhbQ0gzXSlbQ0BASF04W09IXQ==

>  <s_epik_cmdline>  (231) 
J2VwaWtfcHl0aG9uJywgJy1waHQnLCAnMi4wJywgJy1waCcsICc3LjAnLCAnLXRuJywgJzgnLCAnLW1hJywgJzIwMCcsICctaW1hZScsICc8aW5maWxlLm1hZT4nLCAnLW9tYWUnLCAnPG91dGZpbGUubWFlPic=

>  <r_lp_tautomer_probability>  (231) 
1

>  <r_epik_Ionization_Penalty>  (231) 
0.000406758

>  <r_epik_Ionization_Penalty_Charging>  (231) 
0

>  <r_epik_Ionization_Penalty_Neutral>  (231) 
0.000406758

>  <r_epik_State_Penalty>  (231) 
-0

>  <r_epik_Charging_Adjusted_Penalty>  (231) 
0

>  <i_epik_Tot_Q>  (231) 
0

>  <i_epik_Tot_abs_Q>  (231) 
0

>  <s_epik_Chemistry_Notes>  (231) 
This compound has an ester and may undergo hydrolysis at high or low pH.

>  <s_lp_Force_Field>  (231) 
OPLS3e

>  <r_lp_Energy>  (231) 
466.115

>  <b_lp_Chiralities_Consistent>  (231) 
1

>  <s_lp_Variant>  (231) 
78:0-2

>  <s_i_glide_gridfile>  (231) 
pfpi4k_grid

>  <i_i_glide_lignum>  (231) 
42

>  <i_i_glide_rotatable_bonds>  (231) 
6

>  <r_i_docking_score>  (231) 
-3.02749

>  <r_i_glide_ligand_efficiency>  (231) 
-0.0818239

>  <r_i_glide_ligand_efficiency_sa>  (231) 
-0.272655

>  <r_i_glide_ligand_efficiency_ln>  (231) 
-0.656591

>  <r_i_glide_gscore>  (231) 
-3.02749

>  <r_i_glide_lipo>  (231) 
-0.060128

>  <r_i_glide_hbond>  (231) 
0

>  <r_i_glide_metal>  (231) 
-0

>  <r_i_glide_rewards>  (231) 
-0.578416

>  <r_i_glide_evdw>  (231) 
-25.9232

>  <r_i_glide_ecoul>  (231) 
-7.73775

>  <r_i_glide_erotb>  (231) 
0.0774984

>  <r_i_glide_esite>  (231) 
-0.00962005

>  <r_i_glide_emodel>  (231) 
-44.2193

>  <r_i_glide_energy>  (231) 
-33.6609

>  <r_i_glide_einternal>  (231) 
1.85828

>  <r_i_glide_intrahb_reward>  (231) 
-0.5

>  <i_i_glide_confnum>  (231) 
1

>  <i_i_glide_posenum>  (231) 
12

>  <r_i_glide_eff_state_penalty>  (231) 
0

>  <ligand_id>  (231) 
78

>  <original_smiles>  (231) 
C=C1C23Cc4c(coc4O)C1(C(O)C14C=C(C(=O)OC)C5(O)C(=O)OC1C(O)C4(C)C2CC5O)C31CO1

>  <smiles>  (231) 
[H]OC12C(=O)OC3([H])C([H])(O[H])C4(C([H])([H])[H])C([H])(C([H])([H])C1([H])O[H])C15C(=C([H])[H])C(C6=C(C(=O)OC6([H])[H])C1([H])[H])(C([H])(O[H])C34C([H])=C2C(=O)OC([H])([H])[H])C51OC1([H])[H]

$$$$
79:0:0
     RDKit          3D

 44 49  0  0  1  0  0  0  0  0999 V2000
    1.1489   -0.8447    2.7428 C   0  0  0  0  0  0  0  0  0  0  0  0
    2.1100   -2.2173    3.4477 S   0  0  0  0  0  0  0  0  0  0  0  0
    3.7166   -1.7964    2.8244 C   0  0  0  0  0  0  0  0  0  0  0  0
    4.1920   -0.5600    2.8107 N   0  0  0  0  0  0  0  0  0  0  0  0
    5.4739   -0.6852    2.3469 N   0  0  0  0  0  0  0  0  0  0  0  0
    5.7501   -1.9199    2.0999 N   0  0  0  0  0  0  0  0  0  0  0  0
    4.6389   -2.6538    2.3719 N   0  0  0  0  0  0  0  0  0  0  0  0
    4.7072   -4.1053    2.1533 C   0  0  2  0  0  0  0  0  0  0  0  0
    4.0499   -4.6041    0.8211 C   0  0  2  0  0  0  0  0  0  0  0  0
    4.3665   -3.7763   -0.4248 C   0  0  0  0  0  0  0  0  0  0  0  0
    3.3512   -3.4565   -1.3566 C   0  0  0  0  0  0  0  0  0  0  0  0
    3.6245   -2.7087   -2.5224 C   0  0  0  0  0  0  0  0  0  0  0  0
    4.9357   -2.2729   -2.7850 C   0  0  0  0  0  0  0  0  0  0  0  0
    5.9451   -2.6166   -1.8706 C   0  0  0  0  0  0  0  0  0  0  0  0
    5.6834   -3.3602   -0.7365 C   0  0  0  0  0  0  0  0  0  0  0  0
    6.8457   -3.6072   -0.0803 O   0  0  0  0  0  0  0  0  0  0  0  0
    7.8651   -3.0460   -0.8645 C   0  0  0  0  0  0  0  0  0  0  0  0
    7.2757   -2.3399   -1.9221 O   0  0  0  0  0  0  0  0  0  0  0  0
    1.9407   -3.9574   -1.1251 C   0  0  0  0  0  0  0  0  0  0  0  0
    1.8785   -5.0784   -0.2461 O   0  0  0  0  0  0  0  0  0  0  0  0
    2.5242   -4.8110    0.9881 C   0  0  1  0  0  0  0  0  0  0  0  0
    2.2246   -5.9285    2.0051 C   0  0  0  0  0  0  0  0  0  0  0  0
    2.9410   -5.6848    3.3235 C   0  0  1  0  0  0  0  0  0  0  0  0
    2.0642   -5.8592    4.5516 C   0  0  0  0  0  0  0  0  0  0  0  0
    4.2556   -6.2628    3.3783 O   0  0  0  0  0  0  0  0  0  0  0  0
    4.1845   -4.8343    3.3842 C   0  0  1  0  0  0  0  0  0  0  0  0
    0.2187   -0.7346    3.2974 H   0  0  0  0  0  0  0  0  0  0  0  0
    0.9143   -1.0147    1.6900 H   0  0  0  0  0  0  0  0  0  0  0  0
    1.6798    0.1011    2.8215 H   0  0  0  0  0  0  0  0  0  0  0  0
    5.7671   -4.3556    2.1005 H   0  0  0  0  0  0  0  0  0  0  0  0
    4.4761   -5.5874    0.5939 H   0  0  0  0  0  0  0  0  0  0  0  0
    2.8374   -2.4895   -3.2287 H   0  0  0  0  0  0  0  0  0  0  0  0
    5.1420   -1.7298   -3.6925 H   0  0  0  0  0  0  0  0  0  0  0  0
    8.5241   -2.4027   -0.2775 H   0  0  0  0  0  0  0  0  0  0  0  0
    8.4560   -3.8524   -1.2942 H   0  0  0  0  0  0  0  0  0  0  0  0
    1.3908   -3.1025   -0.7444 H   0  0  0  0  0  0  0  0  0  0  0  0
    1.4830   -4.2451   -2.0680 H   0  0  0  0  0  0  0  0  0  0  0  0
    2.0737   -3.8867    1.3293 H   0  0  0  0  0  0  0  0  0  0  0  0
    1.1524   -6.0248    2.1730 H   0  0  0  0  0  0  0  0  0  0  0  0
    2.5734   -6.8865    1.6137 H   0  0  0  0  0  0  0  0  0  0  0  0
    1.2762   -5.1039    4.5552 H   0  0  0  0  0  0  0  0  0  0  0  0
    2.6495   -5.7376    5.4649 H   0  0  0  0  0  0  0  0  0  0  0  0
    1.6024   -6.8455    4.5653 H   0  0  0  0  0  0  0  0  0  0  0  0
    4.4725   -4.3954    4.3373 H   0  0  0  0  0  0  0  0  0  0  0  0
  1  2  1  0
  1 27  1  0
  1 28  1  0
  1 29  1  0
  2  3  1  0
  3  7  1  0
  3  4  2  0
  4  5  1  0
  5  6  2  0
  6  7  1  0
  7  8  1  0
  8 26  1  0
  8  9  1  0
  8 30  1  6
  9 21  1  0
  9 10  1  0
  9 31  1  6
 10 15  2  0
 10 11  1  0
 11 12  2  0
 11 19  1  0
 12 13  1  0
 12 32  1  0
 13 14  2  0
 13 33  1  0
 14 18  1  0
 14 15  1  0
 15 16  1  0
 16 17  1  0
 17 18  1  0
 17 34  1  0
 17 35  1  0
 19 20  1  0
 19 36  1  0
 19 37  1  0
 20 21  1  0
 21 22  1  0
 21 38  1  1
 22 23  1  0
 22 39  1  0
 22 40  1  0
 23 26  1  0
 23 24  1  1
 23 25  1  0
 24 41  1  0
 24 42  1  0
 24 43  1  0
 25 26  1  0
 26 44  1  1
M  END
>  <i_m_ct_stereo_status>  (232) 
1

>  <s_m_source_file>  (232) 
/var/tmp/pbs.5076255.sched01/tmpgyl_4d9e/126kfdajayx.sdf

>  <i_m_source_file_index>  (232) 
1

>  <i_lp_mmshare_version>  (232) 
48012

>  <i_f3d_flags>  (232) 
0

>  <s_epik_input>  (232) 
W0NIM11TYzFubm5uMVtDQEBIXShbQ0BIXShPMilbQ0BdMjNbQ0gzXSlbQ0BASF00YzVjKFtDSDJdT1tDQEhdNFtDSDJdMylbY0hdW2NIXWM2YzVPW0NIMl1PNg==

>  <s_epik_cmdline>  (232) 
J2VwaWtfcHl0aG9uJywgJy1waHQnLCAnMi4wJywgJy1waCcsICc3LjAnLCAnLXRuJywgJzgnLCAnLW1hJywgJzIwMCcsICctaW1hZScsICc8aW5maWxlLm1hZT4nLCAnLW9tYWUnLCAnPG91dGZpbGUubWFlPic=

>  <r_lp_tautomer_probability>  (232) 
1

>  <r_epik_Ionization_Penalty>  (232) 
7.38718e-10

>  <r_epik_Ionization_Penalty_Charging>  (232) 
0

>  <r_epik_Ionization_Penalty_Neutral>  (232) 
7.38718e-10

>  <r_epik_State_Penalty>  (232) 
-0

>  <r_epik_Charging_Adjusted_Penalty>  (232) 
0

>  <i_epik_Tot_Q>  (232) 
0

>  <i_epik_Tot_abs_Q>  (232) 
0

>  <s_epik_Chemistry_Notes>  (232) 
This compound contains an acetal/aminal-like group ( X-CH(R)-Y where X, Y are N, S, or O) that may be acid/base labile, releasing an aldehyde.

>  <s_lp_Force_Field>  (232) 
OPLS3e

>  <r_lp_Energy>  (232) 
37.7298

>  <b_lp_Chiralities_Consistent>  (232) 
1

>  <s_lp_Variant>  (232) 
79:0-1

>  <s_i_glide_gridfile>  (232) 
pfpi4k_grid

>  <i_i_glide_lignum>  (232) 
1

>  <i_i_glide_rotatable_bonds>  (232) 
2

>  <r_i_docking_score>  (232) 
-2.851

>  <r_i_glide_ligand_efficiency>  (232) 
-0.109654

>  <r_i_glide_ligand_efficiency_sa>  (232) 
-0.324849

>  <r_i_glide_ligand_efficiency_ln>  (232) 
-0.669547

>  <r_i_glide_gscore>  (232) 
-2.851

>  <r_i_glide_lipo>  (232) 
-0.311107

>  <r_i_glide_hbond>  (232) 
-0.198799

>  <r_i_glide_metal>  (232) 
-0

>  <r_i_glide_rewards>  (232) 
-0.911372

>  <r_i_glide_evdw>  (232) 
-24.6236

>  <r_i_glide_ecoul>  (232) 
-2.24112

>  <r_i_glide_erotb>  (232) 
0.137928

>  <r_i_glide_esite>  (232) 
-0.000301143

>  <r_i_glide_emodel>  (232) 
-30.26

>  <r_i_glide_energy>  (232) 
-26.8647

>  <r_i_glide_einternal>  (232) 
1.65284

>  <r_i_glide_intrahb_reward>  (232) 
-0

>  <i_i_glide_confnum>  (232) 
3

>  <i_i_glide_posenum>  (232) 
1

>  <r_i_glide_eff_state_penalty>  (232) 
0

>  <ligand_id>  (232) 
79

>  <original_smiles>  (232) 
CSc1nnnn1C1C2c3c(ccc4c3OCO4)COC2CC2(C)OC12

>  <smiles>  (232) 
[H]c1c([H])c2c(c3c1OC([H])([H])O3)C1([H])C([H])(OC2([H])[H])C([H])([H])C2(C([H])([H])[H])OC2([H])C1([H])n1nnnc1SC([H])([H])[H]

$$$$
79:0:1
     RDKit          3D

 44 49  0  0  1  0  0  0  0  0999 V2000
    5.9686   -6.3301    1.4495 C   0  0  0  0  0  0  0  0  0  0  0  0
    5.4373   -5.4608   -0.0097 S   0  0  0  0  0  0  0  0  0  0  0  0
    6.4175   -3.9692    0.1850 C   0  0  0  0  0  0  0  0  0  0  0  0
    7.7212   -3.9423    0.5085 N   0  0  0  0  0  0  0  0  0  0  0  0
    8.0817   -2.5729    0.4368 N   0  0  0  0  0  0  0  0  0  0  0  0
    7.0535   -1.8293    0.1651 N   0  0  0  0  0  0  0  0  0  0  0  0
    5.9742   -2.6848    0.0319 N   0  0  0  0  0  0  0  0  0  0  0  0
    4.6868   -2.0378   -0.3361 C   0  0  2  0  0  0  0  0  0  0  0  0
    3.3892   -2.7501    0.1744 C   0  0  2  0  0  0  0  0  0  0  0  0
    3.4885   -3.2727    1.6130 C   0  0  0  0  0  0  0  0  0  0  0  0
    2.9951   -4.5625    1.9357 C   0  0  0  0  0  0  0  0  0  0  0  0
    3.0695   -5.0408    3.2722 C   0  0  0  0  0  0  0  0  0  0  0  0
    3.6430   -4.2596    4.3024 C   0  0  0  0  0  0  0  0  0  0  0  0
    4.0970   -2.9789    3.9603 C   0  0  0  0  0  0  0  0  0  0  0  0
    4.0249   -2.5031    2.6699 C   0  0  0  0  0  0  0  0  0  0  0  0
    4.5109   -1.2329    2.6541 O   0  0  0  0  0  0  0  0  0  0  0  0
    4.7607   -0.8779    3.9878 C   0  0  0  0  0  0  0  0  0  0  0  0
    4.6216   -2.0298    4.7722 O   0  0  0  0  0  0  0  0  0  0  0  0
    2.3505   -5.4118    0.8351 C   0  0  0  0  0  0  0  0  0  0  0  0
    1.8915   -4.6335   -0.2810 O   0  0  0  0  0  0  0  0  0  0  0  0
    2.9203   -3.8333   -0.8428 C   0  0  1  0  0  0  0  0  0  0  0  0
    2.4555   -3.2076   -2.1516 C   0  0  0  0  0  0  0  0  0  0  0  0
    3.5699   -2.3378   -2.7435 C   0  0  1  0  0  0  0  0  0  0  0  0
    3.8979   -2.5882   -4.2044 C   0  0  0  0  0  0  0  0  0  0  0  0
    3.5269   -0.9673   -2.3250 O   0  0  0  0  0  0  0  0  0  0  0  0
    4.6407   -1.7220   -1.8421 C   0  0  1  0  0  0  0  0  0  0  0  0
    5.7239   -7.3845    1.3334 H   0  0  0  0  0  0  0  0  0  0  0  0
    5.4649   -6.0070    2.3601 H   0  0  0  0  0  0  0  0  0  0  0  0
    7.0448   -6.2939    1.6640 H   0  0  0  0  0  0  0  0  0  0  0  0
    4.7062   -1.0489    0.1342 H   0  0  0  0  0  0  0  0  0  0  0  0
    2.6146   -1.9748    0.2238 H   0  0  0  0  0  0  0  0  0  0  0  0
    2.7168   -6.0316    3.5076 H   0  0  0  0  0  0  0  0  0  0  0  0
    3.7064   -4.6202    5.3172 H   0  0  0  0  0  0  0  0  0  0  0  0
    5.7551   -0.4294    4.1064 H   0  0  0  0  0  0  0  0  0  0  0  0
    3.9956   -0.1590    4.2998 H   0  0  0  0  0  0  0  0  0  0  0  0
    3.0725   -6.1799    0.5391 H   0  0  0  0  0  0  0  0  0  0  0  0
    1.5082   -5.9525    1.2758 H   0  0  0  0  0  0  0  0  0  0  0  0
    3.7311   -4.4510   -1.1807 H   0  0  0  0  0  0  0  0  0  0  0  0
    2.2039   -3.9806   -2.8815 H   0  0  0  0  0  0  0  0  0  0  0  0
    1.5520   -2.6172   -1.9944 H   0  0  0  0  0  0  0  0  0  0  0  0
    4.3174   -3.5896   -4.3351 H   0  0  0  0  0  0  0  0  0  0  0  0
    4.6079   -1.8455   -4.5822 H   0  0  0  0  0  0  0  0  0  0  0  0
    2.9853   -2.5169   -4.7792 H   0  0  0  0  0  0  0  0  0  0  0  0
    5.5722   -1.3641   -2.2981 H   0  0  0  0  0  0  0  0  0  0  0  0
  1  2  1  0
  1 27  1  0
  1 28  1  0
  1 29  1  0
  2  3  1  0
  3  7  1  0
  3  4  2  0
  4  5  1  0
  5  6  2  0
  6  7  1  0
  7  8  1  0
  8 26  1  0
  8  9  1  0
  8 30  1  1
  9 21  1  0
  9 10  1  0
  9 31  1  1
 10 15  2  0
 10 11  1  0
 11 12  2  0
 11 19  1  0
 12 13  1  0
 12 32  1  0
 13 14  2  0
 13 33  1  0
 14 18  1  0
 14 15  1  0
 15 16  1  0
 16 17  1  0
 17 18  1  0
 17 34  1  0
 17 35  1  0
 19 20  1  0
 19 36  1  0
 19 37  1  0
 20 21  1  0
 21 22  1  0
 21 38  1  6
 22 23  1  0
 22 39  1  0
 22 40  1  0
 23 26  1  0
 23 24  1  6
 23 25  1  0
 24 41  1  0
 24 42  1  0
 24 43  1  0
 25 26  1  0
 26 44  1  6
M  END
>  <i_m_ct_stereo_status>  (233) 
1

>  <s_m_source_file>  (233) 
/var/tmp/pbs.5076255.sched01/tmpgyl_4d9e/126kfdajayx.sdf

>  <i_m_source_file_index>  (233) 
1

>  <i_lp_mmshare_version>  (233) 
48012

>  <i_f3d_flags>  (233) 
0

>  <s_epik_input>  (233) 
W0NIM11TYzFubm5uMVtDQEBIXShbQ0BIXShPMilbQ0BdMjNbQ0gzXSlbQ0BASF00YzVjKFtDSDJdT1tDQEhdNFtDSDJdMylbY0hdW2NIXWM2YzVPW0NIMl1PNg==

>  <s_epik_cmdline>  (233) 
J2VwaWtfcHl0aG9uJywgJy1waHQnLCAnMi4wJywgJy1waCcsICc3LjAnLCAnLXRuJywgJzgnLCAnLW1hJywgJzIwMCcsICctaW1hZScsICc8aW5maWxlLm1hZT4nLCAnLW9tYWUnLCAnPG91dGZpbGUubWFlPic=

>  <r_lp_tautomer_probability>  (233) 
1

>  <r_epik_Ionization_Penalty>  (233) 
7.38718e-10

>  <r_epik_Ionization_Penalty_Charging>  (233) 
0

>  <r_epik_Ionization_Penalty_Neutral>  (233) 
7.38718e-10

>  <r_epik_State_Penalty>  (233) 
-0

>  <r_epik_Charging_Adjusted_Penalty>  (233) 
0

>  <i_epik_Tot_Q>  (233) 
0

>  <i_epik_Tot_abs_Q>  (233) 
0

>  <s_epik_Chemistry_Notes>  (233) 
This compound contains an acetal/aminal-like group ( X-CH(R)-Y where X, Y are N, S, or O) that may be acid/base labile, releasing an aldehyde.

>  <s_lp_Force_Field>  (233) 
OPLS3e

>  <r_lp_Energy>  (233) 
37.7298

>  <b_lp_Chiralities_Consistent>  (233) 
1

>  <s_lp_Variant>  (233) 
79:0-1

>  <s_i_glide_gridfile>  (233) 
pfpi4k_grid

>  <i_i_glide_lignum>  (233) 
1

>  <i_i_glide_rotatable_bonds>  (233) 
2

>  <r_i_docking_score>  (233) 
-2.58004

>  <r_i_glide_ligand_efficiency>  (233) 
-0.0992322

>  <r_i_glide_ligand_efficiency_sa>  (233) 
-0.293975

>  <r_i_glide_ligand_efficiency_ln>  (233) 
-0.605913

>  <r_i_glide_gscore>  (233) 
-2.58004

>  <r_i_glide_lipo>  (233) 
-0.245187

>  <r_i_glide_hbond>  (233) 
-0.01921

>  <r_i_glide_metal>  (233) 
-0

>  <r_i_glide_rewards>  (233) 
-1.10642

>  <r_i_glide_evdw>  (233) 
-23.0022

>  <r_i_glide_ecoul>  (233) 
-1.1459

>  <r_i_glide_erotb>  (233) 
0.137928

>  <r_i_glide_esite>  (233) 
-0.0251557

>  <r_i_glide_emodel>  (233) 
-19.4953

>  <r_i_glide_energy>  (233) 
-24.1481

>  <r_i_glide_einternal>  (233) 
10.1269

>  <r_i_glide_intrahb_reward>  (233) 
-0

>  <i_i_glide_confnum>  (233) 
3

>  <i_i_glide_posenum>  (233) 
10

>  <r_i_glide_eff_state_penalty>  (233) 
0

>  <ligand_id>  (233) 
79

>  <original_smiles>  (233) 
CSc1nnnn1C1C2c3c(ccc4c3OCO4)COC2CC2(C)OC12

>  <smiles>  (233) 
[H]c1c([H])c2c(c3c1OC([H])([H])O3)C1([H])C([H])(OC2([H])[H])C([H])([H])C2(C([H])([H])[H])OC2([H])C1([H])n1nnnc1SC([H])([H])[H]

$$$$
79:0:2
     RDKit          3D

 44 49  0  0  1  0  0  0  0  0999 V2000
    8.4350   -2.7106   -0.6956 C   0  0  0  0  0  0  0  0  0  0  0  0
    6.6696   -2.5022   -1.0803 S   0  0  0  0  0  0  0  0  0  0  0  0
    6.1155   -1.6666    0.3829 C   0  0  0  0  0  0  0  0  0  0  0  0
    6.9133   -1.3413    1.3695 N   0  0  0  0  0  0  0  0  0  0  0  0
    6.1137   -0.6862    2.2822 N   0  0  0  0  0  0  0  0  0  0  0  0
    4.9181   -0.5686    1.8297 N   0  0  0  0  0  0  0  0  0  0  0  0
    4.8771   -1.2171    0.6447 N   0  0  0  0  0  0  0  0  0  0  0  0
    3.6098   -1.3165   -0.0590 C   0  0  2  0  0  0  0  0  0  0  0  0
    2.8642   -2.6654    0.2439 C   0  0  2  0  0  0  0  0  0  0  0  0
    2.7937   -3.0986    1.7124 C   0  0  0  0  0  0  0  0  0  0  0  0
    2.9436   -4.4642    2.0534 C   0  0  0  0  0  0  0  0  0  0  0  0
    2.8463   -4.8933    3.3987 C   0  0  0  0  0  0  0  0  0  0  0  0
    2.5821   -3.9646    4.4285 C   0  0  0  0  0  0  0  0  0  0  0  0
    2.3835   -2.6237    4.0655 C   0  0  0  0  0  0  0  0  0  0  0  0
    2.4605   -2.2096    2.7534 C   0  0  0  0  0  0  0  0  0  0  0  0
    2.1627   -0.8858    2.6864 O   0  0  0  0  0  0  0  0  0  0  0  0
    1.8468   -0.4880    3.9932 C   0  0  0  0  0  0  0  0  0  0  0  0
    2.0710   -1.5680    4.8602 O   0  0  0  0  0  0  0  0  0  0  0  0
    3.1759   -5.4694    0.9471 C   0  0  0  0  0  0  0  0  0  0  0  0
    2.7062   -4.9961   -0.3061 O   0  0  0  0  0  0  0  0  0  0  0  0
    3.3545   -3.7928   -0.6859 C   0  0  1  0  0  0  0  0  0  0  0  0
    3.0565   -3.4513   -2.1676 C   0  0  0  0  0  0  0  0  0  0  0  0
    3.6380   -2.1244   -2.5784 C   0  0  1  0  0  0  0  0  0  0  0  0
    4.4063   -2.1480   -3.8788 C   0  0  0  0  0  0  0  0  0  0  0  0
    2.7525   -1.0215   -2.4399 O   0  0  0  0  0  0  0  0  0  0  0  0
    3.8623   -1.0465   -1.5447 C   0  0  1  0  0  0  0  0  0  0  0  0
    8.9788   -2.8413   -1.6296 H   0  0  0  0  0  0  0  0  0  0  0  0
    8.5832   -3.5936   -0.0724 H   0  0  0  0  0  0  0  0  0  0  0  0
    8.8730   -1.8477   -0.1924 H   0  0  0  0  0  0  0  0  0  0  0  0
    2.9968   -0.4955    0.3070 H   0  0  0  0  0  0  0  0  0  0  0  0
    1.8147   -2.5764    0.0227 H   0  0  0  0  0  0  0  0  0  0  0  0
    2.9599   -5.9407    3.6366 H   0  0  0  0  0  0  0  0  0  0  0  0
    2.5059   -4.2739    5.4578 H   0  0  0  0  0  0  0  0  0  0  0  0
    2.4264    0.3903    4.2961 H   0  0  0  0  0  0  0  0  0  0  0  0
    0.7835   -0.2463    4.0198 H   0  0  0  0  0  0  0  0  0  0  0  0
    4.2386   -5.7088    0.9065 H   0  0  0  0  0  0  0  0  0  0  0  0
    2.6479   -6.3930    1.1708 H   0  0  0  0  0  0  0  0  0  0  0  0
    4.4269   -3.9446   -0.5707 H   0  0  0  0  0  0  0  0  0  0  0  0
    3.4726   -4.2051   -2.8449 H   0  0  0  0  0  0  0  0  0  0  0  0
    1.9772   -3.4237   -2.3351 H   0  0  0  0  0  0  0  0  0  0  0  0
    5.2872   -2.7814   -3.7683 H   0  0  0  0  0  0  0  0  0  0  0  0
    4.7192   -1.1343   -4.1341 H   0  0  0  0  0  0  0  0  0  0  0  0
    3.7738   -2.5296   -4.6780 H   0  0  0  0  0  0  0  0  0  0  0  0
    4.5937   -0.2571   -1.7481 H   0  0  0  0  0  0  0  0  0  0  0  0
  1  2  1  0
  1 27  1  0
  1 28  1  0
  1 29  1  0
  2  3  1  0
  3  7  1  0
  3  4  2  0
  4  5  1  0
  5  6  2  0
  6  7  1  0
  7  8  1  0
  8 26  1  0
  8  9  1  0
  8 30  1  1
  9 21  1  0
  9 10  1  0
  9 31  1  6
 10 15  2  0
 10 11  1  0
 11 12  2  0
 11 19  1  0
 12 13  1  0
 12 32  1  0
 13 14  2  0
 13 33  1  0
 14 18  1  0
 14 15  1  0
 15 16  1  0
 16 17  1  0
 17 18  1  0
 17 34  1  0
 17 35  1  0
 19 20  1  0
 19 36  1  0
 19 37  1  0
 20 21  1  0
 21 22  1  0
 21 38  1  6
 22 23  1  0
 22 39  1  0
 22 40  1  0
 23 26  1  0
 23 24  1  6
 23 25  1  0
 24 41  1  0
 24 42  1  0
 24 43  1  0
 25 26  1  0
 26 44  1  1
M  END
>  <i_m_ct_stereo_status>  (234) 
1

>  <s_m_source_file>  (234) 
/var/tmp/pbs.5076255.sched01/tmpgyl_4d9e/126kfdajayx.sdf

>  <i_m_source_file_index>  (234) 
1

>  <i_lp_mmshare_version>  (234) 
48012

>  <i_f3d_flags>  (234) 
0

>  <s_epik_input>  (234) 
W0NIM11TYzFubm5uMVtDQEBIXShbQ0BIXShPMilbQ0BdMjNbQ0gzXSlbQ0BASF00YzVjKFtDSDJdT1tDQEhdNFtDSDJdMylbY0hdW2NIXWM2YzVPW0NIMl1PNg==

>  <s_epik_cmdline>  (234) 
J2VwaWtfcHl0aG9uJywgJy1waHQnLCAnMi4wJywgJy1waCcsICc3LjAnLCAnLXRuJywgJzgnLCAnLW1hJywgJzIwMCcsICctaW1hZScsICc8aW5maWxlLm1hZT4nLCAnLW9tYWUnLCAnPG91dGZpbGUubWFlPic=

>  <r_lp_tautomer_probability>  (234) 
1

>  <r_epik_Ionization_Penalty>  (234) 
7.38718e-10

>  <r_epik_Ionization_Penalty_Charging>  (234) 
0

>  <r_epik_Ionization_Penalty_Neutral>  (234) 
7.38718e-10

>  <r_epik_State_Penalty>  (234) 
-0

>  <r_epik_Charging_Adjusted_Penalty>  (234) 
0

>  <i_epik_Tot_Q>  (234) 
0

>  <i_epik_Tot_abs_Q>  (234) 
0

>  <s_epik_Chemistry_Notes>  (234) 
This compound contains an acetal/aminal-like group ( X-CH(R)-Y where X, Y are N, S, or O) that may be acid/base labile, releasing an aldehyde.

>  <s_lp_Force_Field>  (234) 
OPLS3e

>  <r_lp_Energy>  (234) 
37.7298

>  <b_lp_Chiralities_Consistent>  (234) 
1

>  <s_lp_Variant>  (234) 
79:0-1

>  <s_i_glide_gridfile>  (234) 
pfpi4k_grid

>  <i_i_glide_lignum>  (234) 
1

>  <i_i_glide_rotatable_bonds>  (234) 
2

>  <r_i_docking_score>  (234) 
-1.73302

>  <r_i_glide_ligand_efficiency>  (234) 
-0.0666544

>  <r_i_glide_ligand_efficiency_sa>  (234) 
-0.197464

>  <r_i_glide_ligand_efficiency_ln>  (234) 
-0.406993

>  <r_i_glide_gscore>  (234) 
-1.73302

>  <r_i_glide_lipo>  (234) 
-0.02763

>  <r_i_glide_hbond>  (234) 
0

>  <r_i_glide_metal>  (234) 
-0

>  <r_i_glide_rewards>  (234) 
-1.05859

>  <r_i_glide_evdw>  (234) 
-17.0695

>  <r_i_glide_ecoul>  (234) 
0.46908

>  <r_i_glide_erotb>  (234) 
0.137928

>  <r_i_glide_esite>  (234) 
-0.0016091

>  <r_i_glide_emodel>  (234) 
-17.6903

>  <r_i_glide_energy>  (234) 
-16.6004

>  <r_i_glide_einternal>  (234) 
2.06633

>  <r_i_glide_intrahb_reward>  (234) 
-0

>  <i_i_glide_confnum>  (234) 
2

>  <i_i_glide_posenum>  (234) 
30

>  <r_i_glide_eff_state_penalty>  (234) 
0

>  <ligand_id>  (234) 
79

>  <original_smiles>  (234) 
CSc1nnnn1C1C2c3c(ccc4c3OCO4)COC2CC2(C)OC12

>  <smiles>  (234) 
[H]c1c([H])c2c(c3c1OC([H])([H])O3)C1([H])C([H])(OC2([H])[H])C([H])([H])C2(C([H])([H])[H])OC2([H])C1([H])n1nnnc1SC([H])([H])[H]

$$$$
80:0:0
     RDKit          3D

 54 58  0  0  1  0  0  0  0  0999 V2000
    3.4356   -1.6768   -3.7244 C   0  0  0  0  0  0  0  0  0  0  0  0
    3.5251   -2.5364   -2.6857 C   0  0  0  0  0  0  0  0  0  0  0  0
    4.3422   -2.3353   -1.3951 C   0  0  2  0  0  0  0  0  0  0  0  0
    5.7609   -2.9318   -1.6843 C   0  0  0  0  0  0  0  0  0  0  0  0
    6.6669   -3.5121   -0.8395 C   0  0  0  0  0  0  0  0  0  0  0  0
    6.5920   -3.6141    0.7140 C   0  0  1  0  0  0  0  0  0  0  0  0
    7.8643   -3.9018    1.2330 O   0  0  0  0  0  0  0  0  0  0  0  0
    5.9968   -2.2774    1.0414 C   0  0  2  0  0  0  0  0  0  0  0  0
    5.5820   -1.6556    2.3550 C   0  0  0  0  0  0  0  0  0  0  0  0
    4.1900   -2.2741    2.1371 C   0  0  2  0  0  0  0  0  0  0  0  0
    3.9007   -3.3441    3.1944 C   0  0  1  0  0  0  0  0  0  0  0  0
    2.4805   -3.9335    3.1668 C   0  0  0  0  0  0  0  0  0  0  0  0
    5.0009   -4.4351    2.8746 C   0  0  0  0  0  0  0  0  0  0  0  0
    5.3439   -4.3746    1.3397 C   0  0  2  0  0  0  0  0  0  0  0  0
    5.0993   -5.7731    0.6973 C   0  0  0  0  0  0  0  0  0  0  0  0
    3.6964   -6.3859    0.8452 C   0  0  0  0  0  0  0  0  0  0  0  0
    6.1325   -6.8123    1.1776 C   0  0  0  0  0  0  0  0  0  0  0  0
    4.6470   -3.0775    0.9484 C   0  0  2  0  0  0  0  0  0  0  0  0
    3.7626   -3.1430   -0.2710 C   0  0  0  0  0  0  0  0  0  0  0  0
    2.6023   -3.5609   -0.3078 O   0  0  0  0  0  0  0  0  0  0  0  0
    3.1510   -1.2662    1.7091 N   0  0  1  0  0  0  0  0  0  0  0  0
    2.6785   -0.4124    2.8323 C   0  0  0  0  0  0  0  0  0  0  0  0
    3.4334   -0.4046    0.4797 C   0  0  0  0  0  0  0  0  0  0  0  0
    4.2582   -0.8473   -0.8462 C   0  0  0  0  0  0  0  0  0  0  0  0
    3.9794   -0.7415   -3.7382 H   0  0  0  0  0  0  0  0  0  0  0  0
    2.8075   -1.9054   -4.5744 H   0  0  0  0  0  0  0  0  0  0  0  0
    2.9611   -3.4558   -2.7653 H   0  0  0  0  0  0  0  0  0  0  0  0
    6.0258   -2.9362   -2.7309 H   0  0  0  0  0  0  0  0  0  0  0  0
    7.6039   -3.8373   -1.2699 H   0  0  0  0  0  0  0  0  0  0  0  0
    7.8366   -3.7438    2.1652 H   0  0  0  0  0  0  0  0  0  0  0  0
    6.3125   -1.4937    0.3698 H   0  0  0  0  0  0  0  0  0  0  0  0
    6.1442   -2.0541    3.1974 H   0  0  0  0  0  0  0  0  0  0  0  0
    5.6107   -0.5665    2.3604 H   0  0  0  0  0  0  0  0  0  0  0  0
    4.0729   -2.9523    4.1964 H   0  0  0  0  0  0  0  0  0  0  0  0
    2.1987   -4.2780    2.1747 H   0  0  0  0  0  0  0  0  0  0  0  0
    1.7372   -3.2081    3.4967 H   0  0  0  0  0  0  0  0  0  0  0  0
    2.4095   -4.7864    3.8433 H   0  0  0  0  0  0  0  0  0  0  0  0
    5.9004   -4.2313    3.4563 H   0  0  0  0  0  0  0  0  0  0  0  0
    4.6821   -5.4212    3.2141 H   0  0  0  0  0  0  0  0  0  0  0  0
    5.2553   -5.6864   -0.3779 H   0  0  0  0  0  0  0  0  0  0  0  0
    3.4840   -6.7213    1.8608 H   0  0  0  0  0  0  0  0  0  0  0  0
    3.6834   -7.2723    0.2151 H   0  0  0  0  0  0  0  0  0  0  0  0
    2.8866   -5.7490    0.5063 H   0  0  0  0  0  0  0  0  0  0  0  0
    6.0774   -6.9884    2.2506 H   0  0  0  0  0  0  0  0  0  0  0  0
    7.1551   -6.5211    0.9356 H   0  0  0  0  0  0  0  0  0  0  0  0
    5.9396   -7.7769    0.7112 H   0  0  0  0  0  0  0  0  0  0  0  0
    3.4619    0.2807    3.1564 H   0  0  0  0  0  0  0  0  0  0  0  0
    2.3617   -1.0089    3.6916 H   0  0  0  0  0  0  0  0  0  0  0  0
    1.8218    0.1802    2.4975 H   0  0  0  0  0  0  0  0  0  0  0  0
    2.4292   -0.1386    0.1631 H   0  0  0  0  0  0  0  0  0  0  0  0
    3.8880    0.5338    0.8075 H   0  0  0  0  0  0  0  0  0  0  0  0
    5.2373   -0.3757   -0.8440 H   0  0  0  0  0  0  0  0  0  0  0  0
    3.8140   -0.2573   -1.6436 H   0  0  0  0  0  0  0  0  0  0  0  0
    2.3590   -1.8381    1.4343 H   0  0  0  0  0  0  0  0  0  0  0  0
  1  2  2  0
  1 25  1  0
  1 26  1  0
  3  2  1  6
  2 27  1  0
  3 19  1  0
  3 24  1  0
  3  4  1  0
  4  5  2  0
  4 28  1  0
  5  6  1  0
  5 29  1  0
  6 14  1  0
  6  7  1  1
  6  8  1  0
  7 30  1  0
  8 18  1  0
  8  9  1  0
  8 31  1  6
 10  9  1  1
  9 32  1  0
  9 33  1  0
 10 18  1  0
 10 11  1  0
 10 21  1  0
 11 12  1  0
 11 13  1  0
 11 34  1  1
 12 35  1  0
 12 36  1  0
 12 37  1  0
 13 14  1  0
 13 38  1  0
 13 39  1  0
 14 15  1  6
 14 18  1  0
 15 16  1  0
 15 17  1  0
 15 40  1  0
 16 41  1  0
 16 42  1  0
 16 43  1  0
 17 44  1  0
 17 45  1  0
 17 46  1  0
 18 19  1  6
 19 20  2  0
 21 22  1  0
 21 23  1  0
 21 54  1  6
 22 47  1  0
 22 48  1  0
 22 49  1  0
 23 24  1  0
 23 50  1  0
 23 51  1  0
 24 52  1  0
 24 53  1  0
M  CHG  1  21   1
M  END
>  <i_m_ct_stereo_status>  (235) 
1

>  <s_m_source_file>  (235) 
/var/tmp/pbs.5076255.sched01/tmpgyl_4d9e/126kfdajayx.sdf

>  <i_m_source_file_index>  (235) 
2

>  <i_lp_mmshare_version>  (235) 
48012

>  <i_f3d_flags>  (235) 
0

>  <s_epik_input>  (235) 
W0NIM11OMVtDSDJdW0NIMl1bQ0BAXShDMj1PKShbQ0hdPVtDSDJdKVtDSF09W0NIXVtDQEBdKFtPSF0pKFtDQEhdKFtDSDJdMylbQ0BAXTI0W0NAXTEzNSlbQ0BAXTQoW0NIXShbQ0gzXSlbQ0gzXSlbQ0gyXVtDQEBIXTVbQ0gzXQ==

>  <s_epik_cmdline>  (235) 
J2VwaWtfcHl0aG9uJywgJy1waHQnLCAnMi4wJywgJy1waCcsICc3LjAnLCAnLXRuJywgJzgnLCAnLW1hJywgJzIwMCcsICctaW1hZScsICc8aW5maWxlLm1hZT4nLCAnLW9tYWUnLCAnPG91dGZpbGUubWFlPic=

>  <r_epik_Ionization_Penalty>  (235) 
0.0354347

>  <r_epik_Ionization_Penalty_Charging>  (235) 
0.0354344

>  <r_epik_Ionization_Penalty_Neutral>  (235) 
2.99193e-07

>  <r_epik_State_Penalty>  (235) 
0.0295409

>  <r_epik_Charging_Adjusted_Penalty>  (235) 
0.0649753

>  <i_epik_Tot_Q>  (235) 
1

>  <i_epik_Tot_abs_Q>  (235) 
1

>  <s_lp_Force_Field>  (235) 
OPLS3e

>  <r_lp_Energy>  (235) 
125.429

>  <b_lp_Chiralities_Consistent>  (235) 
1

>  <s_lp_Variant>  (235) 
80:0-1

>  <s_i_glide_gridfile>  (235) 
pfpi4k_grid

>  <i_i_glide_lignum>  (235) 
2

>  <i_i_glide_rotatable_bonds>  (235) 
3

>  <r_i_docking_score>  (235) 
-3.33832

>  <r_i_glide_ligand_efficiency>  (235) 
-0.139097

>  <r_i_glide_ligand_efficiency_sa>  (235) 
-0.401224

>  <r_i_glide_ligand_efficiency_ln>  (235) 
-0.799013

>  <r_i_glide_gscore>  (235) 
-3.33832

>  <r_i_glide_lipo>  (235) 
-0.985471

>  <r_i_glide_hbond>  (235) 
0

>  <r_i_glide_metal>  (235) 
-0

>  <r_i_glide_rewards>  (235) 
-1.17808

>  <r_i_glide_evdw>  (235) 
-16.965

>  <r_i_glide_ecoul>  (235) 
-3.17285

>  <r_i_glide_erotb>  (235) 
0.174082

>  <r_i_glide_esite>  (235) 
-0.0246715

>  <r_i_glide_emodel>  (235) 
-22.2872

>  <r_i_glide_energy>  (235) 
-20.1378

>  <r_i_glide_einternal>  (235) 
3.09438

>  <r_i_glide_intrahb_reward>  (235) 
-0

>  <i_i_glide_confnum>  (235) 
1

>  <i_i_glide_posenum>  (235) 
30

>  <r_i_glide_eff_state_penalty>  (235) 
0

>  <ligand_id>  (235) 
80

>  <original_smiles>  (235) 
C=CC12C=CC3(O)C4CC5(C(C)CC3(C(C)C)C45C1=O)N(C)CC2

>  <smiles>  (235) 
[H]OC12C([H])=C([H])C3(C([H])=C([H])[H])C(=O)C45C1([H])C([H])([H])C4(C([H])(C([H])([H])[H])C([H])([H])C25C([H])(C([H])([H])[H])C([H])([H])[H])[N+]([H])(C([H])([H])[H])C([H])([H])C3([H])[H]

$$$$
80:0:1
     RDKit          3D

 54 58  0  0  1  0  0  0  0  0999 V2000
   -1.5447    4.5662    3.5926 C   0  0  0  0  0  0  0  0  0  0  0  0
   -1.2480    3.3317    3.1480 C   0  0  0  0  0  0  0  0  0  0  0  0
   -0.7909    2.1284    3.9909 C   0  0  2  0  0  0  0  0  0  0  0  0
   -1.7190    2.0849    5.2542 C   0  0  0  0  0  0  0  0  0  0  0  0
   -1.4417    1.6801    6.5363 C   0  0  0  0  0  0  0  0  0  0  0  0
   -0.1814    0.9191    7.0253 C   0  0  1  0  0  0  0  0  0  0  0  0
   -0.4417    0.2552    8.2370 O   0  0  0  0  0  0  0  0  0  0  0  0
    0.1202    0.0490    5.8403 C   0  0  2  0  0  0  0  0  0  0  0  0
    1.2456   -0.9218    5.5664 C   0  0  0  0  0  0  0  0  0  0  0  0
    2.0280    0.2542    4.9560 C   0  0  2  0  0  0  0  0  0  0  0  0
    3.2643    0.5780    5.8024 C   0  0  1  0  0  0  0  0  0  0  0  0
    4.2094    1.6394    5.2133 C   0  0  0  0  0  0  0  0  0  0  0  0
    2.6165    1.0463    7.1724 C   0  0  0  0  0  0  0  0  0  0  0  0
    1.2064    1.6772    6.8827 C   0  0  2  0  0  0  0  0  0  0  0  0
    1.1620    3.1480    7.4193 C   0  0  0  0  0  0  0  0  0  0  0  0
    2.3035    4.0990    6.9963 C   0  0  0  0  0  0  0  0  0  0  0  0
    1.0236    3.1873    8.9530 C   0  0  0  0  0  0  0  0  0  0  0  0
    1.0187    1.2634    5.4271 C   0  0  2  0  0  0  0  0  0  0  0  0
    0.5991    2.3601    4.4946 C   0  0  0  0  0  0  0  0  0  0  0  0
    1.3155    3.2398    4.0172 O   0  0  0  0  0  0  0  0  0  0  0  0
    2.0699    0.2275    3.4429 N   0  0  1  0  0  0  0  0  0  0  0  0
    3.0251   -0.7874    2.9228 C   0  0  0  0  0  0  0  0  0  0  0  0
    0.7557    0.1743    2.6517 C   0  0  0  0  0  0  0  0  0  0  0  0
   -0.6584    0.8346    3.0819 C   0  0  0  0  0  0  0  0  0  0  0  0
   -1.4703    4.8472    4.6361 H   0  0  0  0  0  0  0  0  0  0  0  0
   -1.8461    5.3102    2.8691 H   0  0  0  0  0  0  0  0  0  0  0  0
   -1.3415    3.1669    2.0841 H   0  0  0  0  0  0  0  0  0  0  0  0
   -2.6784    2.5463    5.0902 H   0  0  0  0  0  0  0  0  0  0  0  0
   -2.2158    1.8173    7.2728 H   0  0  0  0  0  0  0  0  0  0  0  0
    0.3875    0.1565    8.6776 H   0  0  0  0  0  0  0  0  0  0  0  0
   -0.7614   -0.2707    5.3030 H   0  0  0  0  0  0  0  0  0  0  0  0
    1.6548   -1.3349    6.4886 H   0  0  0  0  0  0  0  0  0  0  0  0
    0.9866   -1.7218    4.8733 H   0  0  0  0  0  0  0  0  0  0  0  0
    3.8570   -0.3201    5.9826 H   0  0  0  0  0  0  0  0  0  0  0  0
    3.6849    2.5466    4.9216 H   0  0  0  0  0  0  0  0  0  0  0  0
    4.7371    1.2645    4.3364 H   0  0  0  0  0  0  0  0  0  0  0  0
    4.9709    1.9215    5.9403 H   0  0  0  0  0  0  0  0  0  0  0  0
    2.4928    0.1868    7.8318 H   0  0  0  0  0  0  0  0  0  0  0  0
    3.2893    1.7013    7.7252 H   0  0  0  0  0  0  0  0  0  0  0  0
    0.2566    3.6207    7.0402 H   0  0  0  0  0  0  0  0  0  0  0  0
    3.2529    3.8582    7.4696 H   0  0  0  0  0  0  0  0  0  0  0  0
    2.0508    5.1164    7.2983 H   0  0  0  0  0  0  0  0  0  0  0  0
    2.4653    4.1408    5.9257 H   0  0  0  0  0  0  0  0  0  0  0  0
    1.8836    2.7365    9.4481 H   0  0  0  0  0  0  0  0  0  0  0  0
    0.1291    2.6691    9.2952 H   0  0  0  0  0  0  0  0  0  0  0  0
    0.9488    4.2162    9.3087 H   0  0  0  0  0  0  0  0  0  0  0  0
    2.6724   -1.8042    3.1050 H   0  0  0  0  0  0  0  0  0  0  0  0
    4.0137   -0.6869    3.3714 H   0  0  0  0  0  0  0  0  0  0  0  0
    3.1398   -0.6660    1.8442 H   0  0  0  0  0  0  0  0  0  0  0  0
    1.0016    0.5820    1.6695 H   0  0  0  0  0  0  0  0  0  0  0  0
    0.5338   -0.8750    2.4572 H   0  0  0  0  0  0  0  0  0  0  0  0
   -1.3328    0.0632    3.4392 H   0  0  0  0  0  0  0  0  0  0  0  0
   -1.1451    1.0501    2.1304 H   0  0  0  0  0  0  0  0  0  0  0  0
    2.4692    1.1259    3.2028 H   0  0  0  0  0  0  0  0  0  0  0  0
  1  2  2  0
  1 25  1  0
  1 26  1  0
  3  2  1  6
  2 27  1  0
  3 19  1  0
  3 24  1  0
  3  4  1  0
  4  5  2  0
  4 28  1  0
  5  6  1  0
  5 29  1  0
  6 14  1  0
  6  7  1  1
  6  8  1  0
  7 30  1  0
  8 18  1  0
  8  9  1  0
  8 31  1  6
 10  9  1  1
  9 32  1  0
  9 33  1  0
 10 18  1  0
 10 11  1  0
 10 21  1  0
 11 12  1  0
 11 13  1  0
 11 34  1  1
 12 35  1  0
 12 36  1  0
 12 37  1  0
 13 14  1  0
 13 38  1  0
 13 39  1  0
 14 15  1  6
 14 18  1  0
 15 16  1  0
 15 17  1  0
 15 40  1  0
 16 41  1  0
 16 42  1  0
 16 43  1  0
 17 44  1  0
 17 45  1  0
 17 46  1  0
 18 19  1  6
 19 20  2  0
 21 22  1  0
 21 23  1  0
 21 54  1  6
 22 47  1  0
 22 48  1  0
 22 49  1  0
 23 24  1  0
 23 50  1  0
 23 51  1  0
 24 52  1  0
 24 53  1  0
M  CHG  1  21   1
M  END
>  <i_m_ct_stereo_status>  (236) 
1

>  <s_m_source_file>  (236) 
/var/tmp/pbs.5076255.sched01/tmpgyl_4d9e/126kfdajayx.sdf

>  <i_m_source_file_index>  (236) 
2

>  <i_lp_mmshare_version>  (236) 
48012

>  <i_f3d_flags>  (236) 
0

>  <s_epik_input>  (236) 
W0NIM11OMVtDSDJdW0NIMl1bQ0BAXShDMj1PKShbQ0hdPVtDSDJdKVtDSF09W0NIXVtDQEBdKFtPSF0pKFtDQEhdKFtDSDJdMylbQ0BAXTI0W0NAXTEzNSlbQ0BAXTQoW0NIXShbQ0gzXSlbQ0gzXSlbQ0gyXVtDQEBIXTVbQ0gzXQ==

>  <s_epik_cmdline>  (236) 
J2VwaWtfcHl0aG9uJywgJy1waHQnLCAnMi4wJywgJy1waCcsICc3LjAnLCAnLXRuJywgJzgnLCAnLW1hJywgJzIwMCcsICctaW1hZScsICc8aW5maWxlLm1hZT4nLCAnLW9tYWUnLCAnPG91dGZpbGUubWFlPic=

>  <r_epik_Ionization_Penalty>  (236) 
0.0354347

>  <r_epik_Ionization_Penalty_Charging>  (236) 
0.0354344

>  <r_epik_Ionization_Penalty_Neutral>  (236) 
2.99193e-07

>  <r_epik_State_Penalty>  (236) 
0.0295409

>  <r_epik_Charging_Adjusted_Penalty>  (236) 
0.0649753

>  <i_epik_Tot_Q>  (236) 
1

>  <i_epik_Tot_abs_Q>  (236) 
1

>  <s_lp_Force_Field>  (236) 
OPLS3e

>  <r_lp_Energy>  (236) 
125.429

>  <b_lp_Chiralities_Consistent>  (236) 
1

>  <s_lp_Variant>  (236) 
80:0-1

>  <s_i_glide_gridfile>  (236) 
pfpi4k_grid

>  <i_i_glide_lignum>  (236) 
2

>  <i_i_glide_rotatable_bonds>  (236) 
3

>  <r_i_docking_score>  (236) 
-2.21345

>  <r_i_glide_ligand_efficiency>  (236) 
-0.0922271

>  <r_i_glide_ligand_efficiency_sa>  (236) 
-0.266029

>  <r_i_glide_ligand_efficiency_ln>  (236) 
-0.52978

>  <r_i_glide_gscore>  (236) 
-2.21345

>  <r_i_glide_lipo>  (236) 
0

>  <r_i_glide_hbond>  (236) 
-0.00940499

>  <r_i_glide_metal>  (236) 
-0

>  <r_i_glide_rewards>  (236) 
-1.16953

>  <r_i_glide_evdw>  (236) 
-12.6122

>  <r_i_glide_ecoul>  (236) 
-3.73349

>  <r_i_glide_erotb>  (236) 
0.174082

>  <r_i_glide_esite>  (236) 
-0.0179585

>  <r_i_glide_emodel>  (236) 
-18.2158

>  <r_i_glide_energy>  (236) 
-16.3457

>  <r_i_glide_einternal>  (236) 
1.08811

>  <r_i_glide_intrahb_reward>  (236) 
-0

>  <i_i_glide_confnum>  (236) 
4

>  <i_i_glide_posenum>  (236) 
6

>  <r_i_glide_eff_state_penalty>  (236) 
0

>  <ligand_id>  (236) 
80

>  <original_smiles>  (236) 
C=CC12C=CC3(O)C4CC5(C(C)CC3(C(C)C)C45C1=O)N(C)CC2

>  <smiles>  (236) 
[H]OC12C([H])=C([H])C3(C([H])=C([H])[H])C(=O)C45C1([H])C([H])([H])C4(C([H])(C([H])([H])[H])C([H])([H])C25C([H])(C([H])([H])[H])C([H])([H])[H])[N+]([H])(C([H])([H])[H])C([H])([H])C3([H])[H]

$$$$
80:0:2
     RDKit          3D

 54 58  0  0  1  0  0  0  0  0999 V2000
   -2.4427    3.7286    2.9142 C   0  0  0  0  0  0  0  0  0  0  0  0
   -2.4289    2.6757    3.7565 C   0  0  0  0  0  0  0  0  0  0  0  0
   -1.2828    2.2406    4.6915 C   0  0  2  0  0  0  0  0  0  0  0  0
   -1.0603    3.4189    5.7021 C   0  0  0  0  0  0  0  0  0  0  0  0
    0.0803    3.8587    6.3067 C   0  0  0  0  0  0  0  0  0  0  0  0
    1.4693    3.1522    6.3387 C   0  0  1  0  0  0  0  0  0  0  0  0
    2.2475    3.6290    7.4057 O   0  0  0  0  0  0  0  0  0  0  0  0
    1.0462    1.7140    6.4001 C   0  0  2  0  0  0  0  0  0  0  0  0
    1.8493    0.4314    6.3886 C   0  0  0  0  0  0  0  0  0  0  0  0
    1.7467    0.4502    4.8549 C   0  0  2  0  0  0  0  0  0  0  0  0
    3.1234    0.6644    4.2127 C   0  0  1  0  0  0  0  0  0  0  0  0
    3.1563    0.5479    2.6805 C   0  0  0  0  0  0  0  0  0  0  0  0
    3.4916    2.1260    4.7117 C   0  0  0  0  0  0  0  0  0  0  0  0
    2.1716    2.9460    4.9330 C   0  0  2  0  0  0  0  0  0  0  0  0
    2.2065    4.2380    4.0531 C   0  0  0  0  0  0  0  0  0  0  0  0
    2.4363    4.0717    2.5387 C   0  0  0  0  0  0  0  0  0  0  0  0
    3.2108    5.2730    4.6002 C   0  0  0  0  0  0  0  0  0  0  0  0
    1.1436    1.8288    4.8409 C   0  0  2  0  0  0  0  0  0  0  0  0
   -0.0042    2.0733    3.9232 C   0  0  0  0  0  0  0  0  0  0  0  0
   -0.0404    1.8187    2.7154 O   0  0  0  0  0  0  0  0  0  0  0  0
    0.7708   -0.5524    4.3072 N   0  0  1  0  0  0  0  0  0  0  0  0
    1.2991   -1.9354    4.3411 C   0  0  0  0  0  0  0  0  0  0  0  0
   -0.6758   -0.5273    4.8182 C   0  0  0  0  0  0  0  0  0  0  0  0
   -1.5291    0.7779    5.2676 C   0  0  0  0  0  0  0  0  0  0  0  0
   -1.5963    4.3898    2.7952 H   0  0  0  0  0  0  0  0  0  0  0  0
   -3.3173    3.9113    2.3097 H   0  0  0  0  0  0  0  0  0  0  0  0
   -3.3290    2.0866    3.7663 H   0  0  0  0  0  0  0  0  0  0  0  0
   -1.9522    4.0104    5.8349 H   0  0  0  0  0  0  0  0  0  0  0  0
    0.0230    4.7482    6.9158 H   0  0  0  0  0  0  0  0  0  0  0  0
    2.9354    2.9991    7.5482 H   0  0  0  0  0  0  0  0  0  0  0  0
    0.1236    1.5551    6.9360 H   0  0  0  0  0  0  0  0  0  0  0  0
    2.8569    0.5731    6.7822 H   0  0  0  0  0  0  0  0  0  0  0  0
    1.3536   -0.4122    6.8726 H   0  0  0  0  0  0  0  0  0  0  0  0
    3.8493   -0.0403    4.6098 H   0  0  0  0  0  0  0  0  0  0  0  0
    2.4117    1.1755    2.1961 H   0  0  0  0  0  0  0  0  0  0  0  0
    3.0106   -0.4791    2.3399 H   0  0  0  0  0  0  0  0  0  0  0  0
    4.1309    0.8545    2.3041 H   0  0  0  0  0  0  0  0  0  0  0  0
    4.0325    2.0580    5.6546 H   0  0  0  0  0  0  0  0  0  0  0  0
    4.1813    2.6167    4.0335 H   0  0  0  0  0  0  0  0  0  0  0  0
    1.2326    4.7257    4.1210 H   0  0  0  0  0  0  0  0  0  0  0  0
    3.4578    3.7824    2.3113 H   0  0  0  0  0  0  0  0  0  0  0  0
    2.2678    5.0350    2.0505 H   0  0  0  0  0  0  0  0  0  0  0  0
    1.7868    3.3527    2.0611 H   0  0  0  0  0  0  0  0  0  0  0  0
    4.2346    4.9037    4.5646 H   0  0  0  0  0  0  0  0  0  0  0  0
    2.9916    5.5508    5.6315 H   0  0  0  0  0  0  0  0  0  0  0  0
    3.1803    6.1844    4.0016 H   0  0  0  0  0  0  0  0  0  0  0  0
    1.3885   -2.3154    5.3637 H   0  0  0  0  0  0  0  0  0  0  0  0
    2.2834   -2.0146    3.8644 H   0  0  0  0  0  0  0  0  0  0  0  0
    0.6190   -2.5999    3.8000 H   0  0  0  0  0  0  0  0  0  0  0  0
   -1.2571   -1.0029    4.0300 H   0  0  0  0  0  0  0  0  0  0  0  0
   -0.7457   -1.2135    5.6619 H   0  0  0  0  0  0  0  0  0  0  0  0
   -1.6026    0.8005    6.3527 H   0  0  0  0  0  0  0  0  0  0  0  0
   -2.5489    0.4938    5.0224 H   0  0  0  0  0  0  0  0  0  0  0  0
    0.7076   -0.2898    3.3293 H   0  0  0  0  0  0  0  0  0  0  0  0
  1  2  2  0
  1 25  1  0
  1 26  1  0
  3  2  1  6
  2 27  1  0
  3 19  1  0
  3 24  1  0
  3  4  1  0
  4  5  2  0
  4 28  1  0
  5  6  1  0
  5 29  1  0
  6 14  1  0
  6  7  1  1
  6  8  1  0
  7 30  1  0
  8 18  1  0
  8  9  1  0
  8 31  1  6
 10  9  1  1
  9 32  1  0
  9 33  1  0
 10 18  1  0
 10 11  1  0
 10 21  1  0
 11 12  1  0
 11 13  1  0
 11 34  1  1
 12 35  1  0
 12 36  1  0
 12 37  1  0
 13 14  1  0
 13 38  1  0
 13 39  1  0
 14 15  1  6
 14 18  1  0
 15 16  1  0
 15 17  1  0
 15 40  1  0
 16 41  1  0
 16 42  1  0
 16 43  1  0
 17 44  1  0
 17 45  1  0
 17 46  1  0
 18 19  1  6
 19 20  2  0
 21 22  1  0
 21 23  1  0
 21 54  1  6
 22 47  1  0
 22 48  1  0
 22 49  1  0
 23 24  1  0
 23 50  1  0
 23 51  1  0
 24 52  1  0
 24 53  1  0
M  CHG  1  21   1
M  END
>  <i_m_ct_stereo_status>  (237) 
1

>  <s_m_source_file>  (237) 
/var/tmp/pbs.5076255.sched01/tmpgyl_4d9e/126kfdajayx.sdf

>  <i_m_source_file_index>  (237) 
2

>  <i_lp_mmshare_version>  (237) 
48012

>  <i_f3d_flags>  (237) 
0

>  <s_epik_input>  (237) 
W0NIM11OMVtDSDJdW0NIMl1bQ0BAXShDMj1PKShbQ0hdPVtDSDJdKVtDSF09W0NIXVtDQEBdKFtPSF0pKFtDQEhdKFtDSDJdMylbQ0BAXTI0W0NAXTEzNSlbQ0BAXTQoW0NIXShbQ0gzXSlbQ0gzXSlbQ0gyXVtDQEBIXTVbQ0gzXQ==

>  <s_epik_cmdline>  (237) 
J2VwaWtfcHl0aG9uJywgJy1waHQnLCAnMi4wJywgJy1waCcsICc3LjAnLCAnLXRuJywgJzgnLCAnLW1hJywgJzIwMCcsICctaW1hZScsICc8aW5maWxlLm1hZT4nLCAnLW9tYWUnLCAnPG91dGZpbGUubWFlPic=

>  <r_epik_Ionization_Penalty>  (237) 
0.0354347

>  <r_epik_Ionization_Penalty_Charging>  (237) 
0.0354344

>  <r_epik_Ionization_Penalty_Neutral>  (237) 
2.99193e-07

>  <r_epik_State_Penalty>  (237) 
0.0295409

>  <r_epik_Charging_Adjusted_Penalty>  (237) 
0.0649753

>  <i_epik_Tot_Q>  (237) 
1

>  <i_epik_Tot_abs_Q>  (237) 
1

>  <s_lp_Force_Field>  (237) 
OPLS3e

>  <r_lp_Energy>  (237) 
125.429

>  <b_lp_Chiralities_Consistent>  (237) 
1

>  <s_lp_Variant>  (237) 
80:0-1

>  <s_i_glide_gridfile>  (237) 
pfpi4k_grid

>  <i_i_glide_lignum>  (237) 
2

>  <i_i_glide_rotatable_bonds>  (237) 
3

>  <r_i_docking_score>  (237) 
-2.11514

>  <r_i_glide_ligand_efficiency>  (237) 
-0.088131

>  <r_i_glide_ligand_efficiency_sa>  (237) 
-0.254214

>  <r_i_glide_ligand_efficiency_ln>  (237) 
-0.506251

>  <r_i_glide_gscore>  (237) 
-2.11514

>  <r_i_glide_lipo>  (237) 
-0.0559665

>  <r_i_glide_hbond>  (237) 
0

>  <r_i_glide_metal>  (237) 
-0

>  <r_i_glide_rewards>  (237) 
-1.16953

>  <r_i_glide_evdw>  (237) 
-16.3315

>  <r_i_glide_ecoul>  (237) 
-1.40522

>  <r_i_glide_erotb>  (237) 
0.174082

>  <r_i_glide_esite>  (237) 
-0.0363668

>  <r_i_glide_emodel>  (237) 
-19.1194

>  <r_i_glide_energy>  (237) 
-17.7367

>  <r_i_glide_einternal>  (237) 
1.49579

>  <r_i_glide_intrahb_reward>  (237) 
-0

>  <i_i_glide_confnum>  (237) 
1

>  <i_i_glide_posenum>  (237) 
25

>  <r_i_glide_eff_state_penalty>  (237) 
0

>  <ligand_id>  (237) 
80

>  <original_smiles>  (237) 
C=CC12C=CC3(O)C4CC5(C(C)CC3(C(C)C)C45C1=O)N(C)CC2

>  <smiles>  (237) 
[H]OC12C([H])=C([H])C3(C([H])=C([H])[H])C(=O)C45C1([H])C([H])([H])C4(C([H])(C([H])([H])[H])C([H])([H])C25C([H])(C([H])([H])[H])C([H])([H])[H])[N+]([H])(C([H])([H])[H])C([H])([H])C3([H])[H]

$$$$
80:1:0
     RDKit          3D

 53 57  0  0  1  0  0  0  0  0999 V2000
    2.7967   -3.4584   -3.7745 C   0  0  0  0  0  0  0  0  0  0  0  0
    2.7684   -2.6362   -2.7037 C   0  0  0  0  0  0  0  0  0  0  0  0
    3.8864   -2.3513   -1.6673 C   0  0  2  0  0  0  0  0  0  0  0  0
    5.2449   -2.9062   -2.2228 C   0  0  0  0  0  0  0  0  0  0  0  0
    6.3254   -3.4478   -1.5515 C   0  0  0  0  0  0  0  0  0  0  0  0
    6.5709   -3.4444   -0.0186 C   0  0  1  0  0  0  0  0  0  0  0  0
    7.9413   -3.6380    0.2562 O   0  0  0  0  0  0  0  0  0  0  0  0
    6.0290   -2.0940    0.3345 C   0  0  2  0  0  0  0  0  0  0  0  0
    5.8698   -1.3793    1.6488 C   0  0  0  0  0  0  0  0  0  0  0  0
    4.4687   -2.0011    1.7642 C   0  0  2  0  0  0  0  0  0  0  0  0
    4.4677   -2.9825    2.9430 C   0  0  1  0  0  0  0  0  0  0  0  0
    3.1004   -3.5753    3.3051 C   0  0  0  0  0  0  0  0  0  0  0  0
    5.4778   -4.0996    2.4710 C   0  0  0  0  0  0  0  0  0  0  0  0
    5.5031   -4.1634    0.9189 C   0  0  2  0  0  0  0  0  0  0  0  0
    5.1598   -5.6206    0.4773 C   0  0  0  0  0  0  0  0  0  0  0  0
    3.8412   -6.2413    0.9653 C   0  0  0  0  0  0  0  0  0  0  0  0
    6.2962   -6.5952    0.8764 C   0  0  0  0  0  0  0  0  0  0  0  0
    4.7032   -2.9124    0.5880 C   0  0  2  0  0  0  0  0  0  0  0  0
    3.5953   -3.0890   -0.4109 C   0  0  0  0  0  0  0  0  0  0  0  0
    2.4830   -3.6137   -0.2297 O   0  0  0  0  0  0  0  0  0  0  0  0
    3.3310   -1.0772    1.5518 N   0  0  0  0  0  0  0  0  0  0  0  0
    3.1864   -0.1237    2.6509 C   0  0  0  0  0  0  0  0  0  0  0  0
    3.3533   -0.3160    0.2576 C   0  0  0  0  0  0  0  0  0  0  0  0
    3.8373   -0.8317   -1.2184 C   0  0  0  0  0  0  0  0  0  0  0  0
    3.6588   -4.0623   -4.0380 H   0  0  0  0  0  0  0  0  0  0  0  0
    1.9232   -3.5568   -4.4086 H   0  0  0  0  0  0  0  0  0  0  0  0
    1.8373   -2.1135   -2.5283 H   0  0  0  0  0  0  0  0  0  0  0  0
    5.3324   -2.9245   -3.2944 H   0  0  0  0  0  0  0  0  0  0  0  0
    7.1531   -3.7445   -2.1689 H   0  0  0  0  0  0  0  0  0  0  0  0
    8.1157   -3.2709    1.1114 H   0  0  0  0  0  0  0  0  0  0  0  0
    6.1533   -1.3595   -0.4438 H   0  0  0  0  0  0  0  0  0  0  0  0
    6.5928   -1.6802    2.4075 H   0  0  0  0  0  0  0  0  0  0  0  0
    5.8732   -0.2918    1.5386 H   0  0  0  0  0  0  0  0  0  0  0  0
    4.8600   -2.4978    3.8425 H   0  0  0  0  0  0  0  0  0  0  0  0
    2.6132   -4.0033    2.4301 H   0  0  0  0  0  0  0  0  0  0  0  0
    2.4387   -2.8211    3.7302 H   0  0  0  0  0  0  0  0  0  0  0  0
    3.2140   -4.3654    4.0492 H   0  0  0  0  0  0  0  0  0  0  0  0
    6.4807   -3.8549    2.7833 H   0  0  0  0  0  0  0  0  0  0  0  0
    5.2714   -5.0469    2.9745 H   0  0  0  0  0  0  0  0  0  0  0  0
    5.1185   -5.6381   -0.6071 H   0  0  0  0  0  0  0  0  0  0  0  0
    3.8596   -6.4948    2.0222 H   0  0  0  0  0  0  0  0  0  0  0  0
    3.6866   -7.1740    0.4258 H   0  0  0  0  0  0  0  0  0  0  0  0
    2.9541   -5.6455    0.7797 H   0  0  0  0  0  0  0  0  0  0  0  0
    6.4529   -6.6639    1.9476 H   0  0  0  0  0  0  0  0  0  0  0  0
    7.2464   -6.3257    0.4148 H   0  0  0  0  0  0  0  0  0  0  0  0
    6.0179   -7.5933    0.5509 H   0  0  0  0  0  0  0  0  0  0  0  0
    2.2779    0.4667    2.5243 H   0  0  0  0  0  0  0  0  0  0  0  0
    4.0254    0.5708    2.6801 H   0  0  0  0  0  0  0  0  0  0  0  0
    3.1295   -0.6162    3.6205 H   0  0  0  0  0  0  0  0  0  0  0  0
    2.3170   -0.0157    0.1672 H   0  0  0  0  0  0  0  0  0  0  0  0
    3.8967    0.6091    0.4608 H   0  0  0  0  0  0  0  0  0  0  0  0
    4.7780   -0.3367   -1.4456 H   0  0  0  0  0  0  0  0  0  0  0  0
    3.2159   -0.3509   -1.9719 H   0  0  0  0  0  0  0  0  0  0  0  0
  1  2  2  0
  1 25  1  0
  1 26  1  0
  3  2  1  6
  2 27  1  0
  3 19  1  0
  3 24  1  0
  3  4  1  0
  4  5  2  0
  4 28  1  0
  5  6  1  0
  5 29  1  0
  6 14  1  0
  6  7  1  6
  6  8  1  0
  7 30  1  0
  8 18  1  0
  8  9  1  0
  8 31  1  6
  9 10  1  0
  9 32  1  0
  9 33  1  0
 10 18  1  0
 10 11  1  0
 10 21  1  6
 11 12  1  0
 11 13  1  0
 11 34  1  1
 12 35  1  0
 12 36  1  0
 12 37  1  0
 13 14  1  0
 13 38  1  0
 13 39  1  0
 14 15  1  1
 14 18  1  0
 15 16  1  0
 15 17  1  0
 15 40  1  0
 16 41  1  0
 16 42  1  0
 16 43  1  0
 17 44  1  0
 17 45  1  0
 17 46  1  0
 18 19  1  6
 19 20  2  0
 21 22  1  0
 21 23  1  0
 22 47  1  0
 22 48  1  0
 22 49  1  0
 23 24  1  0
 23 50  1  0
 23 51  1  0
 24 52  1  0
 24 53  1  0
M  END
>  <i_m_ct_stereo_status>  (238) 
1

>  <s_m_source_file>  (238) 
/var/tmp/pbs.5076255.sched01/tmpgyl_4d9e/126kfdajayx.sdf

>  <i_m_source_file_index>  (238) 
3

>  <i_lp_mmshare_version>  (238) 
48012

>  <i_f3d_flags>  (238) 
0

>  <s_epik_input>  (238) 
W0NIM11OMVtDSDJdW0NIMl1bQ0BAXShDMj1PKShbQ0hdPVtDSDJdKVtDSF09W0NIXVtDQEBdKFtPSF0pKFtDQEhdKFtDSDJdMylbQ0BAXTI0W0NAXTEzNSlbQ0BAXTQoW0NIXShbQ0gzXSlbQ0gzXSlbQ0gyXVtDQEBIXTVbQ0gzXQ==

>  <s_epik_cmdline>  (238) 
J2VwaWtfcHl0aG9uJywgJy1waHQnLCAnMi4wJywgJy1waCcsICc3LjAnLCAnLXRuJywgJzgnLCAnLW1hJywgJzIwMCcsICctaW1hZScsICc8aW5maWxlLm1hZT4nLCAnLW9tYWUnLCAnPG91dGZpbGUubWFlPic=

>  <r_epik_Ionization_Penalty>  (238) 
1.68645

>  <r_epik_Ionization_Penalty_Charging>  (238) 
0

>  <r_epik_Ionization_Penalty_Neutral>  (238) 
1.68645

>  <r_epik_State_Penalty>  (238) 
1.79131

>  <r_epik_Charging_Adjusted_Penalty>  (238) 
1.79131

>  <i_epik_Tot_Q>  (238) 
0

>  <i_epik_Tot_abs_Q>  (238) 
0

>  <s_lp_Force_Field>  (238) 
OPLS3e

>  <r_lp_Energy>  (238) 
115.158

>  <b_lp_Chiralities_Consistent>  (238) 
1

>  <s_lp_Variant>  (238) 
80:0-2

>  <s_i_glide_gridfile>  (238) 
pfpi4k_grid

>  <i_i_glide_lignum>  (238) 
3

>  <i_i_glide_rotatable_bonds>  (238) 
3

>  <r_i_docking_score>  (238) 
-2.84409

>  <r_i_glide_ligand_efficiency>  (238) 
-0.118504

>  <r_i_glide_ligand_efficiency_sa>  (238) 
-0.341824

>  <r_i_glide_ligand_efficiency_ln>  (238) 
-0.680721

>  <r_i_glide_gscore>  (238) 
-2.84409

>  <r_i_glide_lipo>  (238) 
-1.13639

>  <r_i_glide_hbond>  (238) 
0

>  <r_i_glide_metal>  (238) 
-0

>  <r_i_glide_rewards>  (238) 
-1.17641

>  <r_i_glide_evdw>  (238) 
-15.8208

>  <r_i_glide_ecoul>  (238) 
0.575517

>  <r_i_glide_erotb>  (238) 
0.17503

>  <r_i_glide_esite>  (238) 
-0.001609

>  <r_i_glide_emodel>  (238) 
-18.1683

>  <r_i_glide_energy>  (238) 
-15.2453

>  <r_i_glide_einternal>  (238) 
0.92757

>  <r_i_glide_intrahb_reward>  (238) 
-0

>  <i_i_glide_confnum>  (238) 
3

>  <i_i_glide_posenum>  (238) 
17

>  <r_i_glide_eff_state_penalty>  (238) 
0

>  <ligand_id>  (238) 
80

>  <original_smiles>  (238) 
C=CC12C=CC3(O)C4CC5(C(C)CC3(C(C)C)C45C1=O)N(C)CC2

>  <smiles>  (238) 
[H]OC12C([H])=C([H])C3(C([H])=C([H])[H])C(=O)C45C1([H])C([H])([H])C4(N(C([H])([H])[H])C([H])([H])C3([H])[H])C([H])(C([H])([H])[H])C([H])([H])C25C([H])(C([H])([H])[H])C([H])([H])[H]

$$$$
80:1:1
     RDKit          3D

 53 57  0  0  1  0  0  0  0  0999 V2000
   -2.9399    3.1943    2.8790 C   0  0  0  0  0  0  0  0  0  0  0  0
   -2.6191    3.0528    4.1846 C   0  0  0  0  0  0  0  0  0  0  0  0
   -1.2102    3.0428    4.8108 C   0  0  2  0  0  0  0  0  0  0  0  0
   -0.2344    3.8330    3.8582 C   0  0  0  0  0  0  0  0  0  0  0  0
    1.0983    3.6357    3.5897 C   0  0  0  0  0  0  0  0  0  0  0  0
    2.0882    2.7274    4.3715 C   0  0  1  0  0  0  0  0  0  0  0  0
    3.4167    3.1562    4.1864 O   0  0  0  0  0  0  0  0  0  0  0  0
    1.5637    2.8695    5.7641 C   0  0  2  0  0  0  0  0  0  0  0  0
    1.9654    2.2253    7.0672 C   0  0  0  0  0  0  0  0  0  0  0  0
    0.9289    1.1204    6.7808 C   0  0  2  0  0  0  0  0  0  0  0  0
    1.6870   -0.1988    6.5477 C   0  0  1  0  0  0  0  0  0  0  0  0
    0.7923   -1.4418    6.3948 C   0  0  0  0  0  0  0  0  0  0  0  0
    2.5470    0.1016    5.2476 C   0  0  0  0  0  0  0  0  0  0  0  0
    1.7922    1.1664    4.3788 C   0  0  2  0  0  0  0  0  0  0  0  0
    1.5098    0.5939    2.9504 C   0  0  0  0  0  0  0  0  0  0  0  0
    0.9258   -0.8309    2.8530 C   0  0  0  0  0  0  0  0  0  0  0  0
    2.7547    0.6782    2.0524 C   0  0  0  0  0  0  0  0  0  0  0  0
    0.7230    1.6082    5.3758 C   0  0  2  0  0  0  0  0  0  0  0  0
   -0.6832    1.6403    4.8299 C   0  0  0  0  0  0  0  0  0  0  0  0
   -1.3878    0.6786    4.5163 O   0  0  0  0  0  0  0  0  0  0  0  0
   -0.3214    1.1542    7.5977 N   0  0  0  0  0  0  0  0  0  0  0  0
   -0.0561    0.7850    8.9866 C   0  0  0  0  0  0  0  0  0  0  0  0
   -1.1069    2.4400    7.5800 C   0  0  0  0  0  0  0  0  0  0  0  0
   -1.3004    3.4630    6.3433 C   0  0  0  0  0  0  0  0  0  0  0  0
   -2.1920    3.3040    2.1054 H   0  0  0  0  0  0  0  0  0  0  0  0
   -3.9751    3.1883    2.5617 H   0  0  0  0  0  0  0  0  0  0  0  0
   -3.4437    2.9344    4.8716 H   0  0  0  0  0  0  0  0  0  0  0  0
   -0.7154    4.5737    3.2405 H   0  0  0  0  0  0  0  0  0  0  0  0
    1.5404    4.2544    2.8218 H   0  0  0  0  0  0  0  0  0  0  0  0
    3.6582    2.9809    3.2885 H   0  0  0  0  0  0  0  0  0  0  0  0
    1.1593    3.8500    5.9673 H   0  0  0  0  0  0  0  0  0  0  0  0
    3.0129    1.9298    7.0861 H   0  0  0  0  0  0  0  0  0  0  0  0
    1.7366    2.8432    7.9370 H   0  0  0  0  0  0  0  0  0  0  0  0
    2.3683   -0.3951    7.3760 H   0  0  0  0  0  0  0  0  0  0  0  0
    0.0094   -1.2879    5.6567 H   0  0  0  0  0  0  0  0  0  0  0  0
    0.3138   -1.7008    7.3387 H   0  0  0  0  0  0  0  0  0  0  0  0
    1.3854   -2.3034    6.0854 H   0  0  0  0  0  0  0  0  0  0  0  0
    3.5185    0.5018    5.5294 H   0  0  0  0  0  0  0  0  0  0  0  0
    2.7905   -0.8175    4.7195 H   0  0  0  0  0  0  0  0  0  0  0  0
    0.7697    1.2323    2.4671 H   0  0  0  0  0  0  0  0  0  0  0  0
    1.6432   -1.6077    3.1036 H   0  0  0  0  0  0  0  0  0  0  0  0
    0.6261   -1.0161    1.8216 H   0  0  0  0  0  0  0  0  0  0  0  0
    0.0420   -0.9762    3.4633 H   0  0  0  0  0  0  0  0  0  0  0  0
    3.5814    0.0914    2.4560 H   0  0  0  0  0  0  0  0  0  0  0  0
    3.0933    1.7062    1.9372 H   0  0  0  0  0  0  0  0  0  0  0  0
    2.5360    0.3017    1.0506 H   0  0  0  0  0  0  0  0  0  0  0  0
   -0.9827    0.7070    9.5578 H   0  0  0  0  0  0  0  0  0  0  0  0
    0.5661    1.5347    9.4745 H   0  0  0  0  0  0  0  0  0  0  0  0
    0.4638   -0.1716    9.0626 H   0  0  0  0  0  0  0  0  0  0  0  0
   -2.1092    2.1439    7.8909 H   0  0  0  0  0  0  0  0  0  0  0  0
   -0.7372    3.0490    8.4062 H   0  0  0  0  0  0  0  0  0  0  0  0
   -0.6795    4.3357    6.5254 H   0  0  0  0  0  0  0  0  0  0  0  0
   -2.2819    3.9116    6.5001 H   0  0  0  0  0  0  0  0  0  0  0  0
  1  2  2  0
  1 25  1  0
  1 26  1  0
  3  2  1  6
  2 27  1  0
  3 19  1  0
  3 24  1  0
  3  4  1  0
  4  5  2  0
  4 28  1  0
  5  6  1  0
  5 29  1  0
  6 14  1  0
  6  7  1  1
  6  8  1  0
  7 30  1  0
  8 18  1  0
  8  9  1  0
  8 31  1  1
  9 10  1  0
  9 32  1  0
  9 33  1  0
 10 18  1  0
 10 11  1  0
 10 21  1  1
 11 12  1  0
 11 13  1  0
 11 34  1  1
 12 35  1  0
 12 36  1  0
 12 37  1  0
 13 14  1  0
 13 38  1  0
 13 39  1  0
 14 15  1  6
 14 18  1  0
 15 16  1  0
 15 17  1  0
 15 40  1  0
 16 41  1  0
 16 42  1  0
 16 43  1  0
 17 44  1  0
 17 45  1  0
 17 46  1  0
 18 19  1  6
 19 20  2  0
 21 22  1  0
 21 23  1  0
 22 47  1  0
 22 48  1  0
 22 49  1  0
 23 24  1  0
 23 50  1  0
 23 51  1  0
 24 52  1  0
 24 53  1  0
M  END
>  <i_m_ct_stereo_status>  (239) 
1

>  <s_m_source_file>  (239) 
/var/tmp/pbs.5076255.sched01/tmpgyl_4d9e/126kfdajayx.sdf

>  <i_m_source_file_index>  (239) 
3

>  <i_lp_mmshare_version>  (239) 
48012

>  <i_f3d_flags>  (239) 
0

>  <s_epik_input>  (239) 
W0NIM11OMVtDSDJdW0NIMl1bQ0BAXShDMj1PKShbQ0hdPVtDSDJdKVtDSF09W0NIXVtDQEBdKFtPSF0pKFtDQEhdKFtDSDJdMylbQ0BAXTI0W0NAXTEzNSlbQ0BAXTQoW0NIXShbQ0gzXSlbQ0gzXSlbQ0gyXVtDQEBIXTVbQ0gzXQ==

>  <s_epik_cmdline>  (239) 
J2VwaWtfcHl0aG9uJywgJy1waHQnLCAnMi4wJywgJy1waCcsICc3LjAnLCAnLXRuJywgJzgnLCAnLW1hJywgJzIwMCcsICctaW1hZScsICc8aW5maWxlLm1hZT4nLCAnLW9tYWUnLCAnPG91dGZpbGUubWFlPic=

>  <r_epik_Ionization_Penalty>  (239) 
1.68645

>  <r_epik_Ionization_Penalty_Charging>  (239) 
0

>  <r_epik_Ionization_Penalty_Neutral>  (239) 
1.68645

>  <r_epik_State_Penalty>  (239) 
1.79131

>  <r_epik_Charging_Adjusted_Penalty>  (239) 
1.79131

>  <i_epik_Tot_Q>  (239) 
0

>  <i_epik_Tot_abs_Q>  (239) 
0

>  <s_lp_Force_Field>  (239) 
OPLS3e

>  <r_lp_Energy>  (239) 
115.158

>  <b_lp_Chiralities_Consistent>  (239) 
1

>  <s_lp_Variant>  (239) 
80:0-2

>  <s_i_glide_gridfile>  (239) 
pfpi4k_grid

>  <i_i_glide_lignum>  (239) 
3

>  <i_i_glide_rotatable_bonds>  (239) 
3

>  <r_i_docking_score>  (239) 
-2.48257

>  <r_i_glide_ligand_efficiency>  (239) 
-0.10344

>  <r_i_glide_ligand_efficiency_sa>  (239) 
-0.298374

>  <r_i_glide_ligand_efficiency_ln>  (239) 
-0.594192

>  <r_i_glide_gscore>  (239) 
-2.48257

>  <r_i_glide_lipo>  (239) 
-0.0762873

>  <r_i_glide_hbond>  (239) 
-0.14371

>  <r_i_glide_metal>  (239) 
-0

>  <r_i_glide_rewards>  (239) 
-1.17641

>  <r_i_glide_evdw>  (239) 
-17.1332

>  <r_i_glide_ecoul>  (239) 
-2.60851

>  <r_i_glide_erotb>  (239) 
0.17503

>  <r_i_glide_esite>  (239) 
-0.0132585

>  <r_i_glide_emodel>  (239) 
-22.7608

>  <r_i_glide_energy>  (239) 
-19.7417

>  <r_i_glide_einternal>  (239) 
0.908235

>  <r_i_glide_intrahb_reward>  (239) 
-0

>  <i_i_glide_confnum>  (239) 
4

>  <i_i_glide_posenum>  (239) 
20

>  <r_i_glide_eff_state_penalty>  (239) 
0

>  <ligand_id>  (239) 
80

>  <original_smiles>  (239) 
C=CC12C=CC3(O)C4CC5(C(C)CC3(C(C)C)C45C1=O)N(C)CC2

>  <smiles>  (239) 
[H]OC12C([H])=C([H])C3(C([H])=C([H])[H])C(=O)C45C1([H])C([H])([H])C4(N(C([H])([H])[H])C([H])([H])C3([H])[H])C([H])(C([H])([H])[H])C([H])([H])C25C([H])(C([H])([H])[H])C([H])([H])[H]

$$$$
80:1:2
     RDKit          3D

 53 57  0  0  1  0  0  0  0  0999 V2000
    2.8354   -2.4846   -2.5667 C   0  0  0  0  0  0  0  0  0  0  0  0
    3.6518   -3.3839   -1.9787 C   0  0  0  0  0  0  0  0  0  0  0  0
    4.2609   -3.3185   -0.5642 C   0  0  2  0  0  0  0  0  0  0  0  0
    5.5791   -4.1753   -0.6111 C   0  0  0  0  0  0  0  0  0  0  0  0
    6.1644   -4.9632    0.3606 C   0  0  0  0  0  0  0  0  0  0  0  0
    5.8044   -5.0168    1.8770 C   0  0  1  0  0  0  0  0  0  0  0  0
    6.8771   -5.5243    2.6316 O   0  0  0  0  0  0  0  0  0  0  0  0
    5.4399   -3.5897    2.1220 C   0  0  2  0  0  0  0  0  0  0  0  0
    4.9089   -2.8738    3.3371 C   0  0  0  0  0  0  0  0  0  0  0  0
    3.4860   -3.1732    2.8280 C   0  0  2  0  0  0  0  0  0  0  0  0
    2.8146   -4.1513    3.8098 C   0  0  1  0  0  0  0  0  0  0  0  0
    1.3309   -4.4449    3.5252 C   0  0  0  0  0  0  0  0  0  0  0  0
    3.7221   -5.4485    3.7002 C   0  0  0  0  0  0  0  0  0  0  0  0
    4.3456   -5.5054    2.2636 C   0  0  2  0  0  0  0  0  0  0  0  0
    3.9496   -6.8446    1.5544 C   0  0  0  0  0  0  0  0  0  0  0  0
    2.4638   -7.2591    1.5953 C   0  0  0  0  0  0  0  0  0  0  0  0
    4.8073   -8.0219    2.0543 C   0  0  0  0  0  0  0  0  0  0  0  0
    4.0016   -4.1045    1.7671 C   0  0  2  0  0  0  0  0  0  0  0  0
    3.3714   -4.0497    0.3991 C   0  0  0  0  0  0  0  0  0  0  0  0
    2.2682   -4.4893    0.0658 O   0  0  0  0  0  0  0  0  0  0  0  0
    2.7308   -2.0193    2.2598 N   0  0  0  0  0  0  0  0  0  0  0  0
    2.3267   -1.0767    3.2985 C   0  0  0  0  0  0  0  0  0  0  0  0
    3.3840   -1.2506    1.1424 C   0  0  0  0  0  0  0  0  0  0  0  0
    4.3417   -1.8296   -0.0155 C   0  0  0  0  0  0  0  0  0  0  0  0
    2.5117   -1.5905   -2.0546 H   0  0  0  0  0  0  0  0  0  0  0  0
    2.4622   -2.6383   -3.5716 H   0  0  0  0  0  0  0  0  0  0  0  0
    3.9117   -4.2562   -2.5614 H   0  0  0  0  0  0  0  0  0  0  0  0
    6.0174   -4.2241   -1.5917 H   0  0  0  0  0  0  0  0  0  0  0  0
    7.0435   -5.5301    0.0892 H   0  0  0  0  0  0  0  0  0  0  0  0
    6.6457   -5.4348    3.5426 H   0  0  0  0  0  0  0  0  0  0  0  0
    6.0177   -2.8959    1.5316 H   0  0  0  0  0  0  0  0  0  0  0  0
    5.2065   -3.3400    4.2744 H   0  0  0  0  0  0  0  0  0  0  0  0
    5.1605   -1.8116    3.3520 H   0  0  0  0  0  0  0  0  0  0  0  0
    2.8748   -3.7669    4.8271 H   0  0  0  0  0  0  0  0  0  0  0  0
    1.1702   -4.7353    2.4907 H   0  0  0  0  0  0  0  0  0  0  0  0
    0.7075   -3.5721    3.7227 H   0  0  0  0  0  0  0  0  0  0  0  0
    0.9703   -5.2516    4.1645 H   0  0  0  0  0  0  0  0  0  0  0  0
    4.5204   -5.4003    4.4395 H   0  0  0  0  0  0  0  0  0  0  0  0
    3.1649   -6.3394    3.9801 H   0  0  0  0  0  0  0  0  0  0  0  0
    4.1878   -6.7495    0.4953 H   0  0  0  0  0  0  0  0  0  0  0  0
    2.1426   -7.5985    2.5763 H   0  0  0  0  0  0  0  0  0  0  0  0
    2.3047   -8.0962    0.9153 H   0  0  0  0  0  0  0  0  0  0  0  0
    1.7857   -6.4790    1.2742 H   0  0  0  0  0  0  0  0  0  0  0  0
    4.6672   -8.1962    3.1209 H   0  0  0  0  0  0  0  0  0  0  0  0
    5.8704   -7.8522    1.8810 H   0  0  0  0  0  0  0  0  0  0  0  0
    4.5447   -8.9440    1.5318 H   0  0  0  0  0  0  0  0  0  0  0  0
    1.6766   -0.3022    2.8862 H   0  0  0  0  0  0  0  0  0  0  0  0
    3.1980   -0.5842    3.7300 H   0  0  0  0  0  0  0  0  0  0  0  0
    1.7870   -1.5687    4.1081 H   0  0  0  0  0  0  0  0  0  0  0  0
    2.5614   -0.7510    0.6300 H   0  0  0  0  0  0  0  0  0  0  0  0
    3.9530   -0.4419    1.5979 H   0  0  0  0  0  0  0  0  0  0  0  0
    5.3703   -1.5806    0.2222 H   0  0  0  0  0  0  0  0  0  0  0  0
    4.2273   -1.1465   -0.8538 H   0  0  0  0  0  0  0  0  0  0  0  0
  1  2  2  0
  1 25  1  0
  1 26  1  0
  3  2  1  6
  2 27  1  0
  3 19  1  0
  3 24  1  0
  3  4  1  0
  4  5  2  0
  4 28  1  0
  5  6  1  0
  5 29  1  0
  6 14  1  0
  6  7  1  1
  6  8  1  0
  7 30  1  0
  8 18  1  0
  8  9  1  0
  8 31  1  6
  9 10  1  0
  9 32  1  0
  9 33  1  0
 10 18  1  0
 10 11  1  0
 10 21  1  6
 11 12  1  0
 11 13  1  0
 11 34  1  1
 12 35  1  0
 12 36  1  0
 12 37  1  0
 13 14  1  0
 13 38  1  0
 13 39  1  0
 14 15  1  6
 14 18  1  0
 15 16  1  0
 15 17  1  0
 15 40  1  0
 16 41  1  0
 16 42  1  0
 16 43  1  0
 17 44  1  0
 17 45  1  0
 17 46  1  0
 18 19  1  6
 19 20  2  0
 21 22  1  0
 21 23  1  0
 22 47  1  0
 22 48  1  0
 22 49  1  0
 23 24  1  0
 23 50  1  0
 23 51  1  0
 24 52  1  0
 24 53  1  0
M  END
>  <i_m_ct_stereo_status>  (240) 
1

>  <s_m_source_file>  (240) 
/var/tmp/pbs.5076255.sched01/tmpgyl_4d9e/126kfdajayx.sdf

>  <i_m_source_file_index>  (240) 
3

>  <i_lp_mmshare_version>  (240) 
48012

>  <i_f3d_flags>  (240) 
0

>  <s_epik_input>  (240) 
W0NIM11OMVtDSDJdW0NIMl1bQ0BAXShDMj1PKShbQ0hdPVtDSDJdKVtDSF09W0NIXVtDQEBdKFtPSF0pKFtDQEhdKFtDSDJdMylbQ0BAXTI0W0NAXTEzNSlbQ0BAXTQoW0NIXShbQ0gzXSlbQ0gzXSlbQ0gyXVtDQEBIXTVbQ0gzXQ==

>  <s_epik_cmdline>  (240) 
J2VwaWtfcHl0aG9uJywgJy1waHQnLCAnMi4wJywgJy1waCcsICc3LjAnLCAnLXRuJywgJzgnLCAnLW1hJywgJzIwMCcsICctaW1hZScsICc8aW5maWxlLm1hZT4nLCAnLW9tYWUnLCAnPG91dGZpbGUubWFlPic=

>  <r_epik_Ionization_Penalty>  (240) 
1.68645

>  <r_epik_Ionization_Penalty_Charging>  (240) 
0

>  <r_epik_Ionization_Penalty_Neutral>  (240) 
1.68645

>  <r_epik_State_Penalty>  (240) 
1.79131

>  <r_epik_Charging_Adjusted_Penalty>  (240) 
1.79131

>  <i_epik_Tot_Q>  (240) 
0

>  <i_epik_Tot_abs_Q>  (240) 
0

>  <s_lp_Force_Field>  (240) 
OPLS3e

>  <r_lp_Energy>  (240) 
115.158

>  <b_lp_Chiralities_Consistent>  (240) 
1

>  <s_lp_Variant>  (240) 
80:0-2

>  <s_i_glide_gridfile>  (240) 
pfpi4k_grid

>  <i_i_glide_lignum>  (240) 
3

>  <i_i_glide_rotatable_bonds>  (240) 
3

>  <r_i_docking_score>  (240) 
-2.26757

>  <r_i_glide_ligand_efficiency>  (240) 
-0.0944821

>  <r_i_glide_ligand_efficiency_sa>  (240) 
-0.272534

>  <r_i_glide_ligand_efficiency_ln>  (240) 
-0.542734

>  <r_i_glide_gscore>  (240) 
-2.26757

>  <r_i_glide_lipo>  (240) 
-0.428639

>  <r_i_glide_hbond>  (240) 
-0.00160484

>  <r_i_glide_metal>  (240) 
-0

>  <r_i_glide_rewards>  (240) 
-1.17641

>  <r_i_glide_evdw>  (240) 
-16.2949

>  <r_i_glide_ecoul>  (240) 
-0.0954826

>  <r_i_glide_erotb>  (240) 
0.17503

>  <r_i_glide_esite>  (240) 
-0.00688226

>  <r_i_glide_emodel>  (240) 
-19.1872

>  <r_i_glide_energy>  (240) 
-16.3904

>  <r_i_glide_einternal>  (240) 
0.717481

>  <r_i_glide_intrahb_reward>  (240) 
-0

>  <i_i_glide_confnum>  (240) 
2

>  <i_i_glide_posenum>  (240) 
40

>  <r_i_glide_eff_state_penalty>  (240) 
0

>  <ligand_id>  (240) 
80

>  <original_smiles>  (240) 
C=CC12C=CC3(O)C4CC5(C(C)CC3(C(C)C)C45C1=O)N(C)CC2

>  <smiles>  (240) 
[H]OC12C([H])=C([H])C3(C([H])=C([H])[H])C(=O)C45C1([H])C([H])([H])C4(N(C([H])([H])[H])C([H])([H])C3([H])[H])C([H])(C([H])([H])[H])C([H])([H])C25C([H])(C([H])([H])[H])C([H])([H])[H]

$$$$
81:0:0
     RDKit          3D

 27 29  0  0  1  0  0  0  0  0999 V2000
    2.5504  -10.8181    3.3071 C   0  0  0  0  0  0  0  0  0  0  0  0
    1.5141   -9.8135    2.8787 C   0  0  0  0  0  0  0  0  0  0  0  0
    0.2267  -10.0689    3.0863 N   0  0  0  0  0  0  0  0  0  0  0  0
   -0.4608   -8.9844    2.6033 N   0  0  0  0  0  0  0  0  0  0  0  0
   -1.9039   -8.9728    2.6837 C   0  0  0  0  0  0  0  0  0  0  0  0
    0.3766   -8.0089    2.0785 C   0  0  0  0  0  0  0  0  0  0  0  0
    0.1290   -6.8097    1.4906 N   0  0  0  0  0  0  0  0  0  0  0  0
    1.2267   -6.1544    1.0877 N   0  0  0  0  0  0  0  0  0  0  0  0
    2.4614   -6.6744    1.2887 C   0  0  0  0  0  0  0  0  0  0  0  0
    3.6033   -5.8463    0.8229 C   0  0  0  0  0  0  0  0  0  0  0  0
    3.3995   -4.6475    0.0925 C   0  0  0  0  0  0  0  0  0  0  0  0
    4.5156   -3.9012   -0.3288 C   0  0  0  0  0  0  0  0  0  0  0  0
    5.7864   -4.2554   -0.0632 N   0  0  0  0  0  0  0  0  0  0  0  0
    5.9874   -5.3908    0.6318 C   0  0  0  0  0  0  0  0  0  0  0  0
    4.9432   -6.2176    1.0931 C   0  0  0  0  0  0  0  0  0  0  0  0
    2.7480   -7.8626    1.8651 N   0  0  0  0  0  0  0  0  0  0  0  0
    1.6610   -8.5479    2.2570 C   0  0  0  0  0  0  0  0  0  0  0  0
    3.1343  -11.1764    2.4595 H   0  0  0  0  0  0  0  0  0  0  0  0
    2.0893  -11.6898    3.7723 H   0  0  0  0  0  0  0  0  0  0  0  0
    3.2416  -10.3875    4.0330 H   0  0  0  0  0  0  0  0  0  0  0  0
   -2.3235   -8.9601    1.6790 H   0  0  0  0  0  0  0  0  0  0  0  0
   -2.2320   -8.0876    3.2239 H   0  0  0  0  0  0  0  0  0  0  0  0
   -2.2643   -9.8531    3.2097 H   0  0  0  0  0  0  0  0  0  0  0  0
    2.4155   -4.2897   -0.1682 H   0  0  0  0  0  0  0  0  0  0  0  0
    4.3967   -2.9895   -0.8955 H   0  0  0  0  0  0  0  0  0  0  0  0
    7.0209   -5.6450    0.8193 H   0  0  0  0  0  0  0  0  0  0  0  0
    5.1831   -7.1154    1.6446 H   0  0  0  0  0  0  0  0  0  0  0  0
  1  2  1  0
  1 18  1  0
  1 19  1  0
  1 20  1  0
  2 17  1  0
  2  3  2  0
  3  4  1  0
  4  5  1  0
  4  6  1  0
  5 21  1  0
  5 22  1  0
  5 23  1  0
  6 17  2  0
  6  7  1  0
  7  8  2  0
  8  9  1  0
  9 10  1  0
  9 16  2  0
 10 15  1  0
 10 11  2  0
 11 12  1  0
 11 24  1  0
 12 13  2  0
 12 25  1  0
 13 14  1  0
 14 15  2  0
 14 26  1  0
 15 27  1  0
 16 17  1  0
M  END
>  <i_m_ct_stereo_status>  (241) 
1

>  <s_m_source_file>  (241) 
/var/tmp/pbs.5076255.sched01/tmpgyl_4d9e/126kfdajayx.sdf

>  <i_m_source_file_index>  (241) 
4

>  <i_lp_mmshare_version>  (241) 
48012

>  <i_f3d_flags>  (241) 
0

>  <s_epik_input>  (241) 
W0NIM11uMW5jKFtDSDNdKWMoYzEyKW5jKG5uMiktYzNbY0hdW2NIXW5bY0hdW2NIXTM=

>  <s_epik_cmdline>  (241) 
J2VwaWtfcHl0aG9uJywgJy1waHQnLCAnMi4wJywgJy1waCcsICc3LjAnLCAnLXRuJywgJzgnLCAnLW1hJywgJzIwMCcsICctaW1hZScsICc8aW5maWxlLm1hZT4nLCAnLW9tYWUnLCAnPG91dGZpbGUubWFlPic=

>  <r_lp_tautomer_probability>  (241) 
1

>  <r_epik_Ionization_Penalty>  (241) 
0.00806712

>  <r_epik_Ionization_Penalty_Charging>  (241) 
0

>  <r_epik_Ionization_Penalty_Neutral>  (241) 
0.00806712

>  <r_epik_State_Penalty>  (241) 
0.00606016

>  <r_epik_Charging_Adjusted_Penalty>  (241) 
0.00606016

>  <i_epik_Tot_Q>  (241) 
0

>  <i_epik_Tot_abs_Q>  (241) 
0

>  <s_lp_Force_Field>  (241) 
OPLS3e

>  <r_lp_Energy>  (241) 
31.7614

>  <b_lp_Chiralities_Consistent>  (241) 
1

>  <s_lp_Variant>  (241) 
81:0-1

>  <s_i_glide_gridfile>  (241) 
pfpi4k_grid

>  <i_i_glide_lignum>  (241) 
4

>  <i_i_glide_rotatable_bonds>  (241) 
1

>  <r_i_docking_score>  (241) 
-3.93194

>  <r_i_glide_ligand_efficiency>  (241) 
-0.231291

>  <r_i_glide_ligand_efficiency_sa>  (241) 
-0.594713

>  <r_i_glide_ligand_efficiency_ln>  (241) 
-1.02576

>  <r_i_glide_gscore>  (241) 
-3.93194

>  <r_i_glide_lipo>  (241) 
-0.420783

>  <r_i_glide_hbond>  (241) 
0

>  <r_i_glide_metal>  (241) 
-0

>  <r_i_glide_rewards>  (241) 
-1.86656

>  <r_i_glide_evdw>  (241) 
-23.6139

>  <r_i_glide_ecoul>  (241) 
-3.52297

>  <r_i_glide_erotb>  (241) 
0.331947

>  <r_i_glide_esite>  (241) 
-0.267401

>  <r_i_glide_emodel>  (241) 
-34.0953

>  <r_i_glide_energy>  (241) 
-27.1369

>  <r_i_glide_einternal>  (241) 
0.0469805

>  <r_i_glide_intrahb_reward>  (241) 
-0

>  <i_i_glide_confnum>  (241) 
4

>  <i_i_glide_posenum>  (241) 
26

>  <r_i_glide_eff_state_penalty>  (241) 
0

>  <ligand_id>  (241) 
81

>  <original_smiles>  (241) 
Cc1nn(C)c2nnc(-c3ccncc3)nc12

>  <smiles>  (241) 
[H]c1nc([H])c([H])c(-c2nnc3c(n2)c(C([H])([H])[H])nn3C([H])([H])[H])c1[H]

$$$$
81:0:1
     RDKit          3D

 27 29  0  0  1  0  0  0  0  0999 V2000
    4.3014  -10.0055    2.5834 C   0  0  0  0  0  0  0  0  0  0  0  0
    2.9788   -9.3137    2.3856 C   0  0  0  0  0  0  0  0  0  0  0  0
    1.8617   -9.9051    2.7947 N   0  0  0  0  0  0  0  0  0  0  0  0
    0.8361   -9.0477    2.4796 N   0  0  0  0  0  0  0  0  0  0  0  0
   -0.5255   -9.4324    2.7843 C   0  0  0  0  0  0  0  0  0  0  0  0
    1.2835   -7.8811    1.8685 C   0  0  0  0  0  0  0  0  0  0  0  0
    0.6311   -6.7849    1.3914 N   0  0  0  0  0  0  0  0  0  0  0  0
    1.4346   -5.8561    0.8589 N   0  0  0  0  0  0  0  0  0  0  0  0
    2.7786   -6.0216    0.8350 C   0  0  0  0  0  0  0  0  0  0  0  0
    3.5698   -4.9097    0.2346 C   0  0  0  0  0  0  0  0  0  0  0  0
    2.9390   -3.7637   -0.3174 C   0  0  0  0  0  0  0  0  0  0  0  0
    3.7287   -2.7421   -0.8767 C   0  0  0  0  0  0  0  0  0  0  0  0
    5.0728   -2.7831   -0.9196 N   0  0  0  0  0  0  0  0  0  0  0  0
    5.6780   -3.8691   -0.4016 C   0  0  0  0  0  0  0  0  0  0  0  0
    4.9849   -4.9500    0.1802 C   0  0  0  0  0  0  0  0  0  0  0  0
    3.4614   -7.1005    1.2901 N   0  0  0  0  0  0  0  0  0  0  0  0
    2.6759   -8.0548    1.8156 C   0  0  0  0  0  0  0  0  0  0  0  0
    4.8029  -10.1873    1.6312 H   0  0  0  0  0  0  0  0  0  0  0  0
    4.1733  -10.9742    3.0657 H   0  0  0  0  0  0  0  0  0  0  0  0
    4.9673   -9.4091    3.2101 H   0  0  0  0  0  0  0  0  0  0  0  0
   -1.0977   -9.5150    1.8605 H   0  0  0  0  0  0  0  0  0  0  0  0
   -0.9851   -8.6724    3.4152 H   0  0  0  0  0  0  0  0  0  0  0  0
   -0.5548  -10.3877    3.3088 H   0  0  0  0  0  0  0  0  0  0  0  0
    1.8676   -3.6431   -0.3351 H   0  0  0  0  0  0  0  0  0  0  0  0
    3.2738   -1.8584   -1.3050 H   0  0  0  0  0  0  0  0  0  0  0  0
    6.7567   -3.8717   -0.4543 H   0  0  0  0  0  0  0  0  0  0  0  0
    5.5397   -5.7891    0.5699 H   0  0  0  0  0  0  0  0  0  0  0  0
  1  2  1  0
  1 18  1  0
  1 19  1  0
  1 20  1  0
  2 17  1  0
  2  3  2  0
  3  4  1  0
  4  5  1  0
  4  6  1  0
  5 21  1  0
  5 22  1  0
  5 23  1  0
  6 17  2  0
  6  7  1  0
  7  8  2  0
  8  9  1  0
  9 10  1  0
  9 16  2  0
 10 15  1  0
 10 11  2  0
 11 12  1  0
 11 24  1  0
 12 13  2  0
 12 25  1  0
 13 14  1  0
 14 15  2  0
 14 26  1  0
 15 27  1  0
 16 17  1  0
M  END
>  <i_m_ct_stereo_status>  (242) 
1

>  <s_m_source_file>  (242) 
/var/tmp/pbs.5076255.sched01/tmpgyl_4d9e/126kfdajayx.sdf

>  <i_m_source_file_index>  (242) 
4

>  <i_lp_mmshare_version>  (242) 
48012

>  <i_f3d_flags>  (242) 
0

>  <s_epik_input>  (242) 
W0NIM11uMW5jKFtDSDNdKWMoYzEyKW5jKG5uMiktYzNbY0hdW2NIXW5bY0hdW2NIXTM=

>  <s_epik_cmdline>  (242) 
J2VwaWtfcHl0aG9uJywgJy1waHQnLCAnMi4wJywgJy1waCcsICc3LjAnLCAnLXRuJywgJzgnLCAnLW1hJywgJzIwMCcsICctaW1hZScsICc8aW5maWxlLm1hZT4nLCAnLW9tYWUnLCAnPG91dGZpbGUubWFlPic=

>  <r_lp_tautomer_probability>  (242) 
1

>  <r_epik_Ionization_Penalty>  (242) 
0.00806712

>  <r_epik_Ionization_Penalty_Charging>  (242) 
0

>  <r_epik_Ionization_Penalty_Neutral>  (242) 
0.00806712

>  <r_epik_State_Penalty>  (242) 
0.00606016

>  <r_epik_Charging_Adjusted_Penalty>  (242) 
0.00606016

>  <i_epik_Tot_Q>  (242) 
0

>  <i_epik_Tot_abs_Q>  (242) 
0

>  <s_lp_Force_Field>  (242) 
OPLS3e

>  <r_lp_Energy>  (242) 
31.7614

>  <b_lp_Chiralities_Consistent>  (242) 
1

>  <s_lp_Variant>  (242) 
81:0-1

>  <s_i_glide_gridfile>  (242) 
pfpi4k_grid

>  <i_i_glide_lignum>  (242) 
4

>  <i_i_glide_rotatable_bonds>  (242) 
1

>  <r_i_docking_score>  (242) 
-3.60743

>  <r_i_glide_ligand_efficiency>  (242) 
-0.212202

>  <r_i_glide_ligand_efficiency_sa>  (242) 
-0.54563

>  <r_i_glide_ligand_efficiency_ln>  (242) 
-0.941097

>  <r_i_glide_gscore>  (242) 
-3.60743

>  <r_i_glide_lipo>  (242) 
-0.10623

>  <r_i_glide_hbond>  (242) 
0

>  <r_i_glide_metal>  (242) 
-0

>  <r_i_glide_rewards>  (242) 
-1.86656

>  <r_i_glide_evdw>  (242) 
-22.027

>  <r_i_glide_ecoul>  (242) 
-4.05211

>  <r_i_glide_erotb>  (242) 
0.331947

>  <r_i_glide_esite>  (242) 
-0.257411

>  <r_i_glide_emodel>  (242) 
-32.4786

>  <r_i_glide_energy>  (242) 
-26.0791

>  <r_i_glide_einternal>  (242) 
0.00703789

>  <r_i_glide_intrahb_reward>  (242) 
-0

>  <i_i_glide_confnum>  (242) 
4

>  <i_i_glide_posenum>  (242) 
9

>  <r_i_glide_eff_state_penalty>  (242) 
0

>  <ligand_id>  (242) 
81

>  <original_smiles>  (242) 
Cc1nn(C)c2nnc(-c3ccncc3)nc12

>  <smiles>  (242) 
[H]c1nc([H])c([H])c(-c2nnc3c(n2)c(C([H])([H])[H])nn3C([H])([H])[H])c1[H]

$$$$
81:0:2
     RDKit          3D

 27 29  0  0  1  0  0  0  0  0999 V2000
    5.1412   -9.4390    1.6586 C   0  0  0  0  0  0  0  0  0  0  0  0
    3.8326   -8.6995    1.6963 C   0  0  0  0  0  0  0  0  0  0  0  0
    2.7505   -9.3035    2.1778 N   0  0  0  0  0  0  0  0  0  0  0  0
    1.7289   -8.3941    2.0804 N   0  0  0  0  0  0  0  0  0  0  0  0
    0.4017   -8.7679    2.5263 C   0  0  0  0  0  0  0  0  0  0  0  0
    2.1401   -7.1839    1.5372 C   0  0  0  0  0  0  0  0  0  0  0  0
    1.4726   -6.0362    1.2517 N   0  0  0  0  0  0  0  0  0  0  0  0
    2.2309   -5.0743    0.7010 N   0  0  0  0  0  0  0  0  0  0  0  0
    3.5526   -5.2754    0.4735 C   0  0  0  0  0  0  0  0  0  0  0  0
    4.2972   -4.1320   -0.1289 C   0  0  0  0  0  0  0  0  0  0  0  0
    5.7023   -4.1702   -0.2983 C   0  0  0  0  0  0  0  0  0  0  0  0
    6.3583   -3.0622   -0.8738 C   0  0  0  0  0  0  0  0  0  0  0  0
    5.7253   -1.9427   -1.2767 N   0  0  0  0  0  0  0  0  0  0  0  0
    4.3865   -1.8985   -1.1137 C   0  0  0  0  0  0  0  0  0  0  0  0
    3.6366   -2.9502   -0.5518 C   0  0  0  0  0  0  0  0  0  0  0  0
    4.2515   -6.4024    0.7459 N   0  0  0  0  0  0  0  0  0  0  0  0
    3.5089   -7.3814    1.2881 C   0  0  0  0  0  0  0  0  0  0  0  0
    5.5120   -9.5372    0.6378 H   0  0  0  0  0  0  0  0  0  0  0  0
    5.0411  -10.4462    2.0657 H   0  0  0  0  0  0  0  0  0  0  0  0
    5.9015   -8.9210    2.2447 H   0  0  0  0  0  0  0  0  0  0  0  0
   -0.2887   -8.7405    1.6830 H   0  0  0  0  0  0  0  0  0  0  0  0
    0.0587   -8.0580    3.2783 H   0  0  0  0  0  0  0  0  0  0  0  0
    0.4004   -9.7709    2.9594 H   0  0  0  0  0  0  0  0  0  0  0  0
    6.2801   -5.0306    0.0052 H   0  0  0  0  0  0  0  0  0  0  0  0
    7.4291   -3.0718   -1.0167 H   0  0  0  0  0  0  0  0  0  0  0  0
    3.9027   -0.9913   -1.4457 H   0  0  0  0  0  0  0  0  0  0  0  0
    2.5679   -2.8232   -0.4622 H   0  0  0  0  0  0  0  0  0  0  0  0
  1  2  1  0
  1 18  1  0
  1 19  1  0
  1 20  1  0
  2 17  1  0
  2  3  2  0
  3  4  1  0
  4  5  1  0
  4  6  1  0
  5 21  1  0
  5 22  1  0
  5 23  1  0
  6 17  2  0
  6  7  1  0
  7  8  2  0
  8  9  1  0
  9 10  1  0
  9 16  2  0
 10 15  1  0
 10 11  2  0
 11 12  1  0
 11 24  1  0
 12 13  2  0
 12 25  1  0
 13 14  1  0
 14 15  2  0
 14 26  1  0
 15 27  1  0
 16 17  1  0
M  END
>  <i_m_ct_stereo_status>  (243) 
1

>  <s_m_source_file>  (243) 
/var/tmp/pbs.5076255.sched01/tmpgyl_4d9e/126kfdajayx.sdf

>  <i_m_source_file_index>  (243) 
4

>  <i_lp_mmshare_version>  (243) 
48012

>  <i_f3d_flags>  (243) 
0

>  <s_epik_input>  (243) 
W0NIM11uMW5jKFtDSDNdKWMoYzEyKW5jKG5uMiktYzNbY0hdW2NIXW5bY0hdW2NIXTM=

>  <s_epik_cmdline>  (243) 
J2VwaWtfcHl0aG9uJywgJy1waHQnLCAnMi4wJywgJy1waCcsICc3LjAnLCAnLXRuJywgJzgnLCAnLW1hJywgJzIwMCcsICctaW1hZScsICc8aW5maWxlLm1hZT4nLCAnLW9tYWUnLCAnPG91dGZpbGUubWFlPic=

>  <r_lp_tautomer_probability>  (243) 
1

>  <r_epik_Ionization_Penalty>  (243) 
0.00806712

>  <r_epik_Ionization_Penalty_Charging>  (243) 
0

>  <r_epik_Ionization_Penalty_Neutral>  (243) 
0.00806712

>  <r_epik_State_Penalty>  (243) 
0.00606016

>  <r_epik_Charging_Adjusted_Penalty>  (243) 
0.00606016

>  <i_epik_Tot_Q>  (243) 
0

>  <i_epik_Tot_abs_Q>  (243) 
0

>  <s_lp_Force_Field>  (243) 
OPLS3e

>  <r_lp_Energy>  (243) 
31.7614

>  <b_lp_Chiralities_Consistent>  (243) 
1

>  <s_lp_Variant>  (243) 
81:0-1

>  <s_i_glide_gridfile>  (243) 
pfpi4k_grid

>  <i_i_glide_lignum>  (243) 
4

>  <i_i_glide_rotatable_bonds>  (243) 
1

>  <r_i_docking_score>  (243) 
-3.39908

>  <r_i_glide_ligand_efficiency>  (243) 
-0.199946

>  <r_i_glide_ligand_efficiency_sa>  (243) 
-0.514117

>  <r_i_glide_ligand_efficiency_ln>  (243) 
-0.886744

>  <r_i_glide_gscore>  (243) 
-3.39908

>  <r_i_glide_lipo>  (243) 
-0.178378

>  <r_i_glide_hbond>  (243) 
0

>  <r_i_glide_metal>  (243) 
-0

>  <r_i_glide_rewards>  (243) 
-1.86656

>  <r_i_glide_evdw>  (243) 
-21.8958

>  <r_i_glide_ecoul>  (243) 
-2.74623

>  <r_i_glide_erotb>  (243) 
0.331947

>  <r_i_glide_esite>  (243) 
-0.179356

>  <r_i_glide_emodel>  (243) 
-30.6576

>  <r_i_glide_energy>  (243) 
-24.6421

>  <r_i_glide_einternal>  (243) 
0.0359531

>  <r_i_glide_intrahb_reward>  (243) 
-0

>  <i_i_glide_confnum>  (243) 
2

>  <i_i_glide_posenum>  (243) 
20

>  <r_i_glide_eff_state_penalty>  (243) 
0

>  <ligand_id>  (243) 
81

>  <original_smiles>  (243) 
Cc1nn(C)c2nnc(-c3ccncc3)nc12

>  <smiles>  (243) 
[H]c1nc([H])c([H])c(-c2nnc3c(n2)c(C([H])([H])[H])nn3C([H])([H])[H])c1[H]

$$$$
81:1:0
     RDKit          3D

 28 30  0  0  1  0  0  0  0  0999 V2000
    8.3278   -3.2274   -0.3281 C   0  0  0  0  0  0  0  0  0  0  0  0
    6.8294   -3.0745   -0.3424 C   0  0  0  0  0  0  0  0  0  0  0  0
    6.2907   -1.9265   -0.7436 N   0  0  0  0  0  0  0  0  0  0  0  0
    4.9300   -2.0995   -0.6471 N   0  0  0  0  0  0  0  0  0  0  0  0
    4.0566   -1.0102   -1.0112 C   0  0  0  0  0  0  0  0  0  0  0  0
    4.5728   -3.3598   -0.1859 C   0  0  0  0  0  0  0  0  0  0  0  0
    3.3685   -3.9445    0.0529 N   0  0  0  0  0  0  0  0  0  0  0  0
    3.4447   -5.2099    0.4945 N   0  0  0  0  0  0  0  0  0  0  0  0
    4.6455   -5.8092    0.6795 C   0  0  0  0  0  0  0  0  0  0  0  0
    4.6065   -7.2060    1.1764 C   0  0  0  0  0  0  0  0  0  0  0  0
    5.7989   -7.9323    1.4351 C   0  0  0  0  0  0  0  0  0  0  0  0
    5.7214   -9.2645    1.8896 C   0  0  0  0  0  0  0  0  0  0  0  0
    4.5192   -9.8492    2.0804 N   0  0  0  0  0  0  0  0  0  0  0  0
    3.3575   -9.1987    1.8744 C   0  0  0  0  0  0  0  0  0  0  0  0
    3.3722   -7.8654    1.4244 C   0  0  0  0  0  0  0  0  0  0  0  0
    5.8635   -5.2570    0.4681 N   0  0  0  0  0  0  0  0  0  0  0  0
    5.8097   -3.9939    0.0146 C   0  0  0  0  0  0  0  0  0  0  0  0
    8.6531   -4.0329   -0.9899 H   0  0  0  0  0  0  0  0  0  0  0  0
    8.6898   -3.4469    0.6783 H   0  0  0  0  0  0  0  0  0  0  0  0
    8.8278   -2.3199   -0.6642 H   0  0  0  0  0  0  0  0  0  0  0  0
    3.4249   -1.3088   -1.8470 H   0  0  0  0  0  0  0  0  0  0  0  0
    4.6331   -0.1321   -1.3008 H   0  0  0  0  0  0  0  0  0  0  0  0
    3.4224   -0.7522   -0.1628 H   0  0  0  0  0  0  0  0  0  0  0  0
    6.7730   -7.4807    1.2865 H   0  0  0  0  0  0  0  0  0  0  0  0
    6.5802   -9.8885    2.0936 H   0  0  0  0  0  0  0  0  0  0  0  0
    2.4596   -9.7787    2.0561 H   0  0  0  0  0  0  0  0  0  0  0  0
    2.4257   -7.3709    1.2605 H   0  0  0  0  0  0  0  0  0  0  0  0
    4.4800  -10.8310    2.3629 H   0  0  0  0  0  0  0  0  0  0  0  0
  1  2  1  0
  1 18  1  0
  1 19  1  0
  1 20  1  0
  2 17  1  0
  2  3  2  0
  3  4  1  0
  4  5  1  0
  4  6  1  0
  5 21  1  0
  5 22  1  0
  5 23  1  0
  6 17  2  0
  6  7  1  0
  7  8  2  0
  8  9  1  0
  9 10  1  0
  9 16  2  0
 10 15  1  0
 10 11  2  0
 11 12  1  0
 11 24  1  0
 12 13  2  0
 12 25  1  0
 13 14  1  0
 13 28  1  0
 14 15  2  0
 14 26  1  0
 15 27  1  0
 16 17  1  0
M  CHG  1  13   1
M  END
>  <i_m_ct_stereo_status>  (244) 
1

>  <s_m_source_file>  (244) 
/var/tmp/pbs.5076255.sched01/tmpgyl_4d9e/126kfdajayx.sdf

>  <i_m_source_file_index>  (244) 
5

>  <i_lp_mmshare_version>  (244) 
48012

>  <i_f3d_flags>  (244) 
0

>  <s_epik_input>  (244) 
W0NIM11uMW5jKFtDSDNdKWMoYzEyKW5jKG5uMiktYzNbY0hdW2NIXW5bY0hdW2NIXTM=

>  <s_epik_cmdline>  (244) 
J2VwaWtfcHl0aG9uJywgJy1waHQnLCAnMi4wJywgJy1waCcsICc3LjAnLCAnLXRuJywgJzgnLCAnLW1hJywgJzIwMCcsICctaW1hZScsICc8aW5maWxlLm1hZT4nLCAnLW9tYWUnLCAnPG91dGZpbGUubWFlPic=

>  <r_lp_tautomer_probability>  (244) 
1

>  <r_epik_Ionization_Penalty>  (244) 
2.54966

>  <r_epik_Ionization_Penalty_Charging>  (244) 
2.54966

>  <r_epik_Ionization_Penalty_Neutral>  (244) 
2.08311e-09

>  <r_epik_State_Penalty>  (244) 
2.71815

>  <r_epik_Charging_Adjusted_Penalty>  (244) 
5.26781

>  <i_epik_Tot_Q>  (244) 
1

>  <i_epik_Tot_abs_Q>  (244) 
1

>  <s_lp_Force_Field>  (244) 
OPLS3e

>  <r_lp_Energy>  (244) 
35.5384

>  <b_lp_Chiralities_Consistent>  (244) 
1

>  <s_lp_Variant>  (244) 
81:0-2

>  <s_i_glide_gridfile>  (244) 
pfpi4k_grid

>  <i_i_glide_lignum>  (244) 
5

>  <i_i_glide_rotatable_bonds>  (244) 
1

>  <r_i_docking_score>  (244) 
-3.95489

>  <r_i_glide_ligand_efficiency>  (244) 
-0.23264

>  <r_i_glide_ligand_efficiency_sa>  (244) 
-0.598184

>  <r_i_glide_ligand_efficiency_ln>  (244) 
-1.03174

>  <r_i_glide_gscore>  (244) 
-3.95489

>  <r_i_glide_lipo>  (244) 
-0.463728

>  <r_i_glide_hbond>  (244) 
-0.0940101

>  <r_i_glide_metal>  (244) 
-0

>  <r_i_glide_rewards>  (244) 
-2.04319

>  <r_i_glide_evdw>  (244) 
-21.3412

>  <r_i_glide_ecoul>  (244) 
-3.35364

>  <r_i_glide_erotb>  (244) 
0.329456

>  <r_i_glide_esite>  (244) 
-0.113312

>  <r_i_glide_emodel>  (244) 
-34.3964

>  <r_i_glide_energy>  (244) 
-24.6948

>  <r_i_glide_einternal>  (244) 
0.00122384

>  <r_i_glide_intrahb_reward>  (244) 
-0

>  <i_i_glide_confnum>  (244) 
4

>  <i_i_glide_posenum>  (244) 
5

>  <r_i_glide_eff_state_penalty>  (244) 
0

>  <ligand_id>  (244) 
81

>  <original_smiles>  (244) 
Cc1nn(C)c2nnc(-c3ccncc3)nc12

>  <smiles>  (244) 
[H]c1c(-c2nnc3c(n2)c(C([H])([H])[H])nn3C([H])([H])[H])c([H])c([H])[n+]([H])c1[H]

$$$$
81:1:1
     RDKit          3D

 28 30  0  0  1  0  0  0  0  0999 V2000
    6.7305   -5.7876    0.9550 C   0  0  0  0  0  0  0  0  0  0  0  0
    5.2839   -5.4827    0.6783 C   0  0  0  0  0  0  0  0  0  0  0  0
    4.9619   -4.3578    0.0492 N   0  0  0  0  0  0  0  0  0  0  0  0
    3.5926   -4.3530   -0.0488 N   0  0  0  0  0  0  0  0  0  0  0  0
    2.9353   -3.2438   -0.7086 C   0  0  0  0  0  0  0  0  0  0  0  0
    3.0105   -5.4747    0.5277 C   0  0  0  0  0  0  0  0  0  0  0  0
    1.7132   -5.8664    0.6727 N   0  0  0  0  0  0  0  0  0  0  0  0
    1.5524   -7.0343    1.3113 N   0  0  0  0  0  0  0  0  0  0  0  0
    2.6269   -7.7421    1.7401 C   0  0  0  0  0  0  0  0  0  0  0  0
    2.3339   -9.0268    2.4326 C   0  0  0  0  0  0  0  0  0  0  0  0
    3.3324  -10.0185    2.6022 C   0  0  0  0  0  0  0  0  0  0  0  0
    3.0200  -11.2299    3.2586 C   0  0  0  0  0  0  0  0  0  0  0  0
    1.7725  -11.4451    3.7287 N   0  0  0  0  0  0  0  0  0  0  0  0
    0.7873  -10.5289    3.5992 C   0  0  0  0  0  0  0  0  0  0  0  0
    1.0394   -9.3056    2.9453 C   0  0  0  0  0  0  0  0  0  0  0  0
    3.9250   -7.3915    1.6102 N   0  0  0  0  0  0  0  0  0  0  0  0
    4.1079   -6.2153    0.9903 C   0  0  0  0  0  0  0  0  0  0  0  0
    7.0377   -6.7249    0.4907 H   0  0  0  0  0  0  0  0  0  0  0  0
    6.9246   -5.8724    2.0241 H   0  0  0  0  0  0  0  0  0  0  0  0
    7.3822   -5.0061    0.5596 H   0  0  0  0  0  0  0  0  0  0  0  0
    2.3901   -3.6117   -1.5767 H   0  0  0  0  0  0  0  0  0  0  0  0
    3.6577   -2.4923   -1.0338 H   0  0  0  0  0  0  0  0  0  0  0  0
    2.2288   -2.7798   -0.0227 H   0  0  0  0  0  0  0  0  0  0  0  0
    4.3280   -9.8754    2.1997 H   0  0  0  0  0  0  0  0  0  0  0  0
    3.7165  -12.0452    3.3936 H   0  0  0  0  0  0  0  0  0  0  0  0
   -0.1677  -10.7977    4.0216 H   0  0  0  0  0  0  0  0  0  0  0  0
    0.2342   -8.5911    2.8455 H   0  0  0  0  0  0  0  0  0  0  0  0
    1.5693  -12.3323    4.1945 H   0  0  0  0  0  0  0  0  0  0  0  0
  1  2  1  0
  1 18  1  0
  1 19  1  0
  1 20  1  0
  2 17  1  0
  2  3  2  0
  3  4  1  0
  4  5  1  0
  4  6  1  0
  5 21  1  0
  5 22  1  0
  5 23  1  0
  6 17  2  0
  6  7  1  0
  7  8  2  0
  8  9  1  0
  9 10  1  0
  9 16  2  0
 10 15  1  0
 10 11  2  0
 11 12  1  0
 11 24  1  0
 12 13  2  0
 12 25  1  0
 13 14  1  0
 13 28  1  0
 14 15  2  0
 14 26  1  0
 15 27  1  0
 16 17  1  0
M  CHG  1  13   1
M  END
>  <i_m_ct_stereo_status>  (245) 
1

>  <s_m_source_file>  (245) 
/var/tmp/pbs.5076255.sched01/tmpgyl_4d9e/126kfdajayx.sdf

>  <i_m_source_file_index>  (245) 
5

>  <i_lp_mmshare_version>  (245) 
48012

>  <i_f3d_flags>  (245) 
0

>  <s_epik_input>  (245) 
W0NIM11uMW5jKFtDSDNdKWMoYzEyKW5jKG5uMiktYzNbY0hdW2NIXW5bY0hdW2NIXTM=

>  <s_epik_cmdline>  (245) 
J2VwaWtfcHl0aG9uJywgJy1waHQnLCAnMi4wJywgJy1waCcsICc3LjAnLCAnLXRuJywgJzgnLCAnLW1hJywgJzIwMCcsICctaW1hZScsICc8aW5maWxlLm1hZT4nLCAnLW9tYWUnLCAnPG91dGZpbGUubWFlPic=

>  <r_lp_tautomer_probability>  (245) 
1

>  <r_epik_Ionization_Penalty>  (245) 
2.54966

>  <r_epik_Ionization_Penalty_Charging>  (245) 
2.54966

>  <r_epik_Ionization_Penalty_Neutral>  (245) 
2.08311e-09

>  <r_epik_State_Penalty>  (245) 
2.71815

>  <r_epik_Charging_Adjusted_Penalty>  (245) 
5.26781

>  <i_epik_Tot_Q>  (245) 
1

>  <i_epik_Tot_abs_Q>  (245) 
1

>  <s_lp_Force_Field>  (245) 
OPLS3e

>  <r_lp_Energy>  (245) 
35.5384

>  <b_lp_Chiralities_Consistent>  (245) 
1

>  <s_lp_Variant>  (245) 
81:0-2

>  <s_i_glide_gridfile>  (245) 
pfpi4k_grid

>  <i_i_glide_lignum>  (245) 
5

>  <i_i_glide_rotatable_bonds>  (245) 
1

>  <r_i_docking_score>  (245) 
-3.84093

>  <r_i_glide_ligand_efficiency>  (245) 
-0.225937

>  <r_i_glide_ligand_efficiency_sa>  (245) 
-0.580948

>  <r_i_glide_ligand_efficiency_ln>  (245) 
-1.00201

>  <r_i_glide_gscore>  (245) 
-3.84093

>  <r_i_glide_lipo>  (245) 
-0.296812

>  <r_i_glide_hbond>  (245) 
0

>  <r_i_glide_metal>  (245) 
-0

>  <r_i_glide_rewards>  (245) 
-1.85969

>  <r_i_glide_evdw>  (245) 
-20.3556

>  <r_i_glide_ecoul>  (245) 
-5.46763

>  <r_i_glide_erotb>  (245) 
0.329456

>  <r_i_glide_esite>  (245) 
-0.175958

>  <r_i_glide_emodel>  (245) 
-35.0771

>  <r_i_glide_energy>  (245) 
-25.8233

>  <r_i_glide_einternal>  (245) 
0.35395

>  <r_i_glide_intrahb_reward>  (245) 
-0

>  <i_i_glide_confnum>  (245) 
2

>  <i_i_glide_posenum>  (245) 
9

>  <r_i_glide_eff_state_penalty>  (245) 
0

>  <ligand_id>  (245) 
81

>  <original_smiles>  (245) 
Cc1nn(C)c2nnc(-c3ccncc3)nc12

>  <smiles>  (245) 
[H]c1c(-c2nnc3c(n2)c(C([H])([H])[H])nn3C([H])([H])[H])c([H])c([H])[n+]([H])c1[H]

$$$$
81:1:2
     RDKit          3D

 28 30  0  0  1  0  0  0  0  0999 V2000
    4.4938   -9.9409    2.4193 C   0  0  0  0  0  0  0  0  0  0  0  0
    3.1474   -9.2822    2.2879 C   0  0  0  0  0  0  0  0  0  0  0  0
    2.0658   -9.9029    2.7375 N   0  0  0  0  0  0  0  0  0  0  0  0
    1.0056   -9.0691    2.4801 N   0  0  0  0  0  0  0  0  0  0  0  0
   -0.3254   -9.4914    2.8636 C   0  0  0  0  0  0  0  0  0  0  0  0
    1.3941   -7.8901    1.8551 C   0  0  0  0  0  0  0  0  0  0  0  0
    0.6980   -6.8069    1.4149 N   0  0  0  0  0  0  0  0  0  0  0  0
    1.4531   -5.8573    0.8462 N   0  0  0  0  0  0  0  0  0  0  0  0
    2.8005   -5.9873    0.7789 C   0  0  0  0  0  0  0  0  0  0  0  0
    3.5343   -4.8626    0.1415 C   0  0  0  0  0  0  0  0  0  0  0  0
    4.9422   -4.7463    0.2498 C   0  0  0  0  0  0  0  0  0  0  0  0
    5.5995   -3.6602   -0.3683 C   0  0  0  0  0  0  0  0  0  0  0  0
    4.8922   -2.7358   -1.0594 N   0  0  0  0  0  0  0  0  0  0  0  0
    3.5529   -2.8015   -1.1907 C   0  0  0  0  0  0  0  0  0  0  0  0
    2.8491   -3.8644   -0.6002 C   0  0  0  0  0  0  0  0  0  0  0  0
    3.5326   -7.0363    1.2210 N   0  0  0  0  0  0  0  0  0  0  0  0
    2.7898   -8.0224    1.7516 C   0  0  0  0  0  0  0  0  0  0  0  0
    5.1730   -9.3406    3.0265 H   0  0  0  0  0  0  0  0  0  0  0  0
    4.9561  -10.1000    1.4443 H   0  0  0  0  0  0  0  0  0  0  0  0
    4.4056  -10.9180    2.8951 H   0  0  0  0  0  0  0  0  0  0  0  0
   -0.7288   -8.7946    3.5971 H   0  0  0  0  0  0  0  0  0  0  0  0
   -0.3087  -10.4924    3.2955 H   0  0  0  0  0  0  0  0  0  0  0  0
   -0.9728   -9.4949    1.9875 H   0  0  0  0  0  0  0  0  0  0  0  0
    5.5120   -5.4832    0.8013 H   0  0  0  0  0  0  0  0  0  0  0  0
    6.6682   -3.5026   -0.3270 H   0  0  0  0  0  0  0  0  0  0  0  0
    3.0827   -2.0116   -1.7677 H   0  0  0  0  0  0  0  0  0  0  0  0
    1.7859   -3.9087   -0.7559 H   0  0  0  0  0  0  0  0  0  0  0  0
    5.3829   -1.9608   -1.5012 H   0  0  0  0  0  0  0  0  0  0  0  0
  1  2  1  0
  1 18  1  0
  1 19  1  0
  1 20  1  0
  2 17  1  0
  2  3  2  0
  3  4  1  0
  4  5  1  0
  4  6  1  0
  5 21  1  0
  5 22  1  0
  5 23  1  0
  6 17  2  0
  6  7  1  0
  7  8  2  0
  8  9  1  0
  9 10  1  0
  9 16  2  0
 10 15  1  0
 10 11  2  0
 11 12  1  0
 11 24  1  0
 12 13  2  0
 12 25  1  0
 13 14  1  0
 13 28  1  0
 14 15  2  0
 14 26  1  0
 15 27  1  0
 16 17  1  0
M  CHG  1  13   1
M  END
>  <i_m_ct_stereo_status>  (246) 
1

>  <s_m_source_file>  (246) 
/var/tmp/pbs.5076255.sched01/tmpgyl_4d9e/126kfdajayx.sdf

>  <i_m_source_file_index>  (246) 
5

>  <i_lp_mmshare_version>  (246) 
48012

>  <i_f3d_flags>  (246) 
0

>  <s_epik_input>  (246) 
W0NIM11uMW5jKFtDSDNdKWMoYzEyKW5jKG5uMiktYzNbY0hdW2NIXW5bY0hdW2NIXTM=

>  <s_epik_cmdline>  (246) 
J2VwaWtfcHl0aG9uJywgJy1waHQnLCAnMi4wJywgJy1waCcsICc3LjAnLCAnLXRuJywgJzgnLCAnLW1hJywgJzIwMCcsICctaW1hZScsICc8aW5maWxlLm1hZT4nLCAnLW9tYWUnLCAnPG91dGZpbGUubWFlPic=

>  <r_lp_tautomer_probability>  (246) 
1

>  <r_epik_Ionization_Penalty>  (246) 
2.54966

>  <r_epik_Ionization_Penalty_Charging>  (246) 
2.54966

>  <r_epik_Ionization_Penalty_Neutral>  (246) 
2.08311e-09

>  <r_epik_State_Penalty>  (246) 
2.71815

>  <r_epik_Charging_Adjusted_Penalty>  (246) 
5.26781

>  <i_epik_Tot_Q>  (246) 
1

>  <i_epik_Tot_abs_Q>  (246) 
1

>  <s_lp_Force_Field>  (246) 
OPLS3e

>  <r_lp_Energy>  (246) 
35.5384

>  <b_lp_Chiralities_Consistent>  (246) 
1

>  <s_lp_Variant>  (246) 
81:0-2

>  <s_i_glide_gridfile>  (246) 
pfpi4k_grid

>  <i_i_glide_lignum>  (246) 
5

>  <i_i_glide_rotatable_bonds>  (246) 
1

>  <r_i_docking_score>  (246) 
-3.79711

>  <r_i_glide_ligand_efficiency>  (246) 
-0.22336

>  <r_i_glide_ligand_efficiency_sa>  (246) 
-0.57432

>  <r_i_glide_ligand_efficiency_ln>  (246) 
-0.990582

>  <r_i_glide_gscore>  (246) 
-3.79711

>  <r_i_glide_lipo>  (246) 
-0.113566

>  <r_i_glide_hbond>  (246) 
0

>  <r_i_glide_metal>  (246) 
-0

>  <r_i_glide_rewards>  (246) 
-1.87847

>  <r_i_glide_evdw>  (246) 
-21.0093

>  <r_i_glide_ecoul>  (246) 
-5.56005

>  <r_i_glide_erotb>  (246) 
0.329456

>  <r_i_glide_esite>  (246) 
-0.250057

>  <r_i_glide_emodel>  (246) 
-35.7812

>  <r_i_glide_energy>  (246) 
-26.5694

>  <r_i_glide_einternal>  (246) 
0.222542

>  <r_i_glide_intrahb_reward>  (246) 
-0

>  <i_i_glide_confnum>  (246) 
4

>  <i_i_glide_posenum>  (246) 
4

>  <r_i_glide_eff_state_penalty>  (246) 
0

>  <ligand_id>  (246) 
81

>  <original_smiles>  (246) 
Cc1nn(C)c2nnc(-c3ccncc3)nc12

>  <smiles>  (246) 
[H]c1c(-c2nnc3c(n2)c(C([H])([H])[H])nn3C([H])([H])[H])c([H])c([H])[n+]([H])c1[H]

$$$$
83:0:0
     RDKit          3D

 10 11  0  0  1  0  0  0  0  0999 V2000
    0.2048  -10.0724    3.1151 C   0  0  0  0  0  0  0  0  0  0  0  0
    1.4070   -9.4344    2.7158 C   0  0  0  0  0  0  0  0  0  0  0  0
    1.1306   -8.2436    2.1736 N   0  0  0  0  0  0  0  0  0  0  0  0
    2.0081   -7.3639    1.6975 N   0  0  0  0  0  0  0  0  0  0  0  0
    1.2351   -6.3942    1.2894 N   0  0  0  0  0  0  0  0  0  0  0  0
   -0.1330   -6.6553    1.5141 N   0  0  0  0  0  0  0  0  0  0  0  0
   -0.1628   -7.8367    2.0782 C   0  0  0  0  0  0  0  0  0  0  0  0
   -1.2381   -9.0612    2.7603 S   0  0  0  0  0  0  0  0  0  0  0  0
    0.1039  -11.0446    3.5877 H   0  0  0  0  0  0  0  0  0  0  0  0
    2.4359   -9.7566    2.7880 H   0  0  0  0  0  0  0  0  0  0  0  0
  1  8  1  0
  1  2  2  0
  1  9  1  0
  2  3  1  0
  2 10  1  0
  3  7  1  0
  3  4  1  0
  4  5  2  0
  5  6  1  0
  6  7  2  0
  7  8  1  0
M  END
>  <i_m_ct_stereo_status>  (247) 
1

>  <s_m_source_file>  (247) 
/var/tmp/pbs.5076255.sched01/tmpgyl_4d9e/126kfdajayx.sdf

>  <i_m_source_file_index>  (247) 
7

>  <i_lp_mmshare_version>  (247) 
48012

>  <i_f3d_flags>  (247) 
0

>  <s_epik_input>  (247) 
W2NIXTFbY0hdc2MobjEyKW5ubjI=

>  <s_epik_cmdline>  (247) 
J2VwaWtfcHl0aG9uJywgJy1waHQnLCAnMi4wJywgJy1waCcsICc3LjAnLCAnLXRuJywgJzgnLCAnLW1hJywgJzIwMCcsICctaW1hZScsICc8aW5maWxlLm1hZT4nLCAnLW9tYWUnLCAnPG91dGZpbGUubWFlPic=

>  <r_lp_tautomer_probability>  (247) 
1

>  <r_epik_Ionization_Penalty>  (247) 
1.40824e-06

>  <r_epik_Ionization_Penalty_Charging>  (247) 
0

>  <r_epik_Ionization_Penalty_Neutral>  (247) 
1.40824e-06

>  <r_epik_State_Penalty>  (247) 
-0

>  <r_epik_Charging_Adjusted_Penalty>  (247) 
0

>  <i_epik_Tot_Q>  (247) 
0

>  <i_epik_Tot_abs_Q>  (247) 
0

>  <s_lp_Force_Field>  (247) 
OPLS3e

>  <r_lp_Energy>  (247) 
1.59571

>  <b_lp_Chiralities_Consistent>  (247) 
1

>  <s_lp_Variant>  (247) 
83:0-1

>  <s_i_glide_gridfile>  (247) 
pfpi4k_grid

>  <i_i_glide_lignum>  (247) 
7

>  <i_i_glide_rotatable_bonds>  (247) 
0

>  <r_i_docking_score>  (247) 
-3.93493

>  <r_i_glide_ligand_efficiency>  (247) 
-0.491867

>  <r_i_glide_ligand_efficiency_sa>  (247) 
-0.983733

>  <r_i_glide_ligand_efficiency_ln>  (247) 
-1.27781

>  <r_i_glide_gscore>  (247) 
-3.93493

>  <r_i_glide_lipo>  (247) 
-0.0617648

>  <r_i_glide_hbond>  (247) 
0

>  <r_i_glide_metal>  (247) 
-0

>  <r_i_glide_rewards>  (247) 
-2.25

>  <r_i_glide_evdw>  (247) 
-15.6816

>  <r_i_glide_ecoul>  (247) 
-3.62472

>  <r_i_glide_erotb>  (247) 
0

>  <r_i_glide_esite>  (247) 
-0.295379

>  <r_i_glide_emodel>  (247) 
-24.9626

>  <r_i_glide_energy>  (247) 
-19.3064

>  <r_i_glide_einternal>  (247) 
0

>  <r_i_glide_intrahb_reward>  (247) 
-0

>  <i_i_glide_confnum>  (247) 
1

>  <i_i_glide_posenum>  (247) 
17

>  <r_i_glide_eff_state_penalty>  (247) 
0

>  <ligand_id>  (247) 
83

>  <original_smiles>  (247) 
c1cn2nnnc2s1

>  <smiles>  (247) 
[H]c1sc2nnnn2c1[H]

$$$$
83:0:1
     RDKit          3D

 10 11  0  0  1  0  0  0  0  0999 V2000
    1.0068  -10.6296    4.0226 C   0  0  0  0  0  0  0  0  0  0  0  0
    0.2147  -10.2885    2.8927 C   0  0  0  0  0  0  0  0  0  0  0  0
   -0.4970   -9.1817    3.1399 N   0  0  0  0  0  0  0  0  0  0  0  0
   -1.3453   -8.5878    2.3044 N   0  0  0  0  0  0  0  0  0  0  0  0
   -1.7519   -7.5674    3.0058 N   0  0  0  0  0  0  0  0  0  0  0  0
   -1.1563   -7.5151    4.2829 N   0  0  0  0  0  0  0  0  0  0  0  0
   -0.3728   -8.5658    4.3416 C   0  0  0  0  0  0  0  0  0  0  0  0
    0.7758   -9.4608    5.3614 S   0  0  0  0  0  0  0  0  0  0  0  0
    1.6686  -11.4858    4.1303 H   0  0  0  0  0  0  0  0  0  0  0  0
    0.1026  -10.7834    1.9355 H   0  0  0  0  0  0  0  0  0  0  0  0
  1  8  1  0
  1  2  2  0
  1  9  1  0
  2  3  1  0
  2 10  1  0
  3  7  1  0
  3  4  1  0
  4  5  2  0
  5  6  1  0
  6  7  2  0
  7  8  1  0
M  END
>  <i_m_ct_stereo_status>  (248) 
1

>  <s_m_source_file>  (248) 
/var/tmp/pbs.5076255.sched01/tmpgyl_4d9e/126kfdajayx.sdf

>  <i_m_source_file_index>  (248) 
7

>  <i_lp_mmshare_version>  (248) 
48012

>  <i_f3d_flags>  (248) 
0

>  <s_epik_input>  (248) 
W2NIXTFbY0hdc2MobjEyKW5ubjI=

>  <s_epik_cmdline>  (248) 
J2VwaWtfcHl0aG9uJywgJy1waHQnLCAnMi4wJywgJy1waCcsICc3LjAnLCAnLXRuJywgJzgnLCAnLW1hJywgJzIwMCcsICctaW1hZScsICc8aW5maWxlLm1hZT4nLCAnLW9tYWUnLCAnPG91dGZpbGUubWFlPic=

>  <r_lp_tautomer_probability>  (248) 
1

>  <r_epik_Ionization_Penalty>  (248) 
1.40824e-06

>  <r_epik_Ionization_Penalty_Charging>  (248) 
0

>  <r_epik_Ionization_Penalty_Neutral>  (248) 
1.40824e-06

>  <r_epik_State_Penalty>  (248) 
-0

>  <r_epik_Charging_Adjusted_Penalty>  (248) 
0

>  <i_epik_Tot_Q>  (248) 
0

>  <i_epik_Tot_abs_Q>  (248) 
0

>  <s_lp_Force_Field>  (248) 
OPLS3e

>  <r_lp_Energy>  (248) 
1.59571

>  <b_lp_Chiralities_Consistent>  (248) 
1

>  <s_lp_Variant>  (248) 
83:0-1

>  <s_i_glide_gridfile>  (248) 
pfpi4k_grid

>  <i_i_glide_lignum>  (248) 
7

>  <i_i_glide_rotatable_bonds>  (248) 
0

>  <r_i_docking_score>  (248) 
-3.74859

>  <r_i_glide_ligand_efficiency>  (248) 
-0.468574

>  <r_i_glide_ligand_efficiency_sa>  (248) 
-0.937148

>  <r_i_glide_ligand_efficiency_ln>  (248) 
-1.2173

>  <r_i_glide_gscore>  (248) 
-3.74859

>  <r_i_glide_lipo>  (248) 
-0.0753278

>  <r_i_glide_hbond>  (248) 
0

>  <r_i_glide_metal>  (248) 
-0

>  <r_i_glide_rewards>  (248) 
-2.25

>  <r_i_glide_evdw>  (248) 
-16.3553

>  <r_i_glide_ecoul>  (248) 
-2.46702

>  <r_i_glide_erotb>  (248) 
0

>  <r_i_glide_esite>  (248) 
-0.235445

>  <r_i_glide_emodel>  (248) 
-24.2106

>  <r_i_glide_energy>  (248) 
-18.8223

>  <r_i_glide_einternal>  (248) 
0

>  <r_i_glide_intrahb_reward>  (248) 
-0

>  <i_i_glide_confnum>  (248) 
1

>  <i_i_glide_posenum>  (248) 
23

>  <r_i_glide_eff_state_penalty>  (248) 
0

>  <ligand_id>  (248) 
83

>  <original_smiles>  (248) 
c1cn2nnnc2s1

>  <smiles>  (248) 
[H]c1sc2nnnn2c1[H]

$$$$
83:0:2
     RDKit          3D

 10 11  0  0  1  0  0  0  0  0999 V2000
    3.0725   -1.3230   -3.9330 C   0  0  0  0  0  0  0  0  0  0  0  0
    3.8200   -0.6979   -2.9062 C   0  0  0  0  0  0  0  0  0  0  0  0
    3.9648   -1.5381   -1.8752 N   0  0  0  0  0  0  0  0  0  0  0  0
    4.6274   -1.2909   -0.7428 N   0  0  0  0  0  0  0  0  0  0  0  0
    4.4718   -2.4065   -0.0856 N   0  0  0  0  0  0  0  0  0  0  0  0
    3.7214   -3.3637   -0.8014 N   0  0  0  0  0  0  0  0  0  0  0  0
    3.4231   -2.7757   -1.9355 C   0  0  0  0  0  0  0  0  0  0  0  0
    2.6190   -2.9955   -3.5042 S   0  0  0  0  0  0  0  0  0  0  0  0
    2.7882   -0.8798   -4.8759 H   0  0  0  0  0  0  0  0  0  0  0  0
    4.2557    0.2878   -2.8266 H   0  0  0  0  0  0  0  0  0  0  0  0
  1  8  1  0
  1  2  2  0
  1  9  1  0
  2  3  1  0
  2 10  1  0
  3  7  1  0
  3  4  1  0
  4  5  2  0
  5  6  1  0
  6  7  2  0
  7  8  1  0
M  END
>  <i_m_ct_stereo_status>  (249) 
1

>  <s_m_source_file>  (249) 
/var/tmp/pbs.5076255.sched01/tmpgyl_4d9e/126kfdajayx.sdf

>  <i_m_source_file_index>  (249) 
7

>  <i_lp_mmshare_version>  (249) 
48012

>  <i_f3d_flags>  (249) 
0

>  <s_epik_input>  (249) 
W2NIXTFbY0hdc2MobjEyKW5ubjI=

>  <s_epik_cmdline>  (249) 
J2VwaWtfcHl0aG9uJywgJy1waHQnLCAnMi4wJywgJy1waCcsICc3LjAnLCAnLXRuJywgJzgnLCAnLW1hJywgJzIwMCcsICctaW1hZScsICc8aW5maWxlLm1hZT4nLCAnLW9tYWUnLCAnPG91dGZpbGUubWFlPic=

>  <r_lp_tautomer_probability>  (249) 
1

>  <r_epik_Ionization_Penalty>  (249) 
1.40824e-06

>  <r_epik_Ionization_Penalty_Charging>  (249) 
0

>  <r_epik_Ionization_Penalty_Neutral>  (249) 
1.40824e-06

>  <r_epik_State_Penalty>  (249) 
-0

>  <r_epik_Charging_Adjusted_Penalty>  (249) 
0

>  <i_epik_Tot_Q>  (249) 
0

>  <i_epik_Tot_abs_Q>  (249) 
0

>  <s_lp_Force_Field>  (249) 
OPLS3e

>  <r_lp_Energy>  (249) 
1.59571

>  <b_lp_Chiralities_Consistent>  (249) 
1

>  <s_lp_Variant>  (249) 
83:0-1

>  <s_i_glide_gridfile>  (249) 
pfpi4k_grid

>  <i_i_glide_lignum>  (249) 
7

>  <i_i_glide_rotatable_bonds>  (249) 
0

>  <r_i_docking_score>  (249) 
-3.7346

>  <r_i_glide_ligand_efficiency>  (249) 
-0.466825

>  <r_i_glide_ligand_efficiency_sa>  (249) 
-0.933651

>  <r_i_glide_ligand_efficiency_ln>  (249) 
-1.21275

>  <r_i_glide_gscore>  (249) 
-3.7346

>  <r_i_glide_lipo>  (249) 
-0.406603

>  <r_i_glide_hbond>  (249) 
0

>  <r_i_glide_metal>  (249) 
-0

>  <r_i_glide_rewards>  (249) 
-2.25

>  <r_i_glide_evdw>  (249) 
-18.1813

>  <r_i_glide_ecoul>  (249) 
-0.306092

>  <r_i_glide_erotb>  (249) 
0

>  <r_i_glide_esite>  (249) 
-0.12302

>  <r_i_glide_emodel>  (249) 
-23.8544

>  <r_i_glide_energy>  (249) 
-18.4874

>  <r_i_glide_einternal>  (249) 
0

>  <r_i_glide_intrahb_reward>  (249) 
-0

>  <i_i_glide_confnum>  (249) 
1

>  <i_i_glide_posenum>  (249) 
2

>  <r_i_glide_eff_state_penalty>  (249) 
0

>  <ligand_id>  (249) 
83

>  <original_smiles>  (249) 
c1cn2nnnc2s1

>  <smiles>  (249) 
[H]c1sc2nnnn2c1[H]

$$$$
84:0:0
     RDKit          3D

 42 46  0  0  1  0  0  0  0  0999 V2000
    6.3434  -10.5166    1.4787 C   0  0  0  0  0  0  0  0  0  0  0  0
    5.6819   -9.4886    2.4106 C   0  0  2  0  0  0  0  0  0  0  0  0
    4.3253   -9.9315    2.7313 N   0  0  0  0  0  0  0  0  0  0  0  0
    3.2164   -9.2012    2.5453 C   0  0  0  0  0  0  0  0  0  0  0  0
    2.0482   -9.7595    2.9510 N   0  0  0  0  0  0  0  0  0  0  0  0
    0.7691   -9.1031    2.8590 C   0  0  0  0  0  0  0  0  0  0  0  0
   -0.3717   -9.8404    2.4874 C   0  0  0  0  0  0  0  0  0  0  0  0
   -1.6183   -9.1839    2.4865 C   0  0  0  0  0  0  0  0  0  0  0  0
   -1.6600   -7.8286    2.8517 C   0  0  0  0  0  0  0  0  0  0  0  0
   -0.5727   -7.0968    3.1576 N   0  0  0  0  0  0  0  0  0  0  0  0
    0.6110   -7.7414    3.1903 C   0  0  0  0  0  0  0  0  0  0  0  0
    3.3268   -7.9719    1.9850 N   0  0  0  0  0  0  0  0  0  0  0  0
    4.5748   -7.3997    1.6809 N   0  0  0  0  0  0  0  0  0  0  0  0
    5.8065   -8.0722    1.8846 C   0  0  0  0  0  0  0  0  0  0  0  0
    6.9863   -7.5557    1.6739 N   0  0  0  0  0  0  0  0  0  0  0  0
    6.9473   -6.2719    1.1832 C   0  0  0  0  0  0  0  0  0  0  0  0
    8.4328   -5.4245    0.7756 S   0  0  0  0  0  0  0  0  0  0  0  0
    7.5149   -4.0369    0.2768 C   0  0  0  0  0  0  0  0  0  0  0  0
    6.1834   -4.2017    0.4056 C   0  0  0  0  0  0  0  0  0  0  0  0
    5.8346   -5.4948    0.9295 C   0  0  0  0  0  0  0  0  0  0  0  0
    4.4998   -6.1186    1.2316 C   0  0  0  0  0  0  0  0  0  0  0  0
    3.4418   -5.5046    1.0805 O   0  0  0  0  0  0  0  0  0  0  0  0
    5.4745   -2.9534   -0.0453 C   0  0  0  0  0  0  0  0  0  0  0  0
    6.6217   -2.0382   -0.5831 C   0  0  0  0  0  0  0  0  0  0  0  0
    7.9620   -2.7385   -0.2614 C   0  0  0  0  0  0  0  0  0  0  0  0
    7.3988  -10.2939    1.3324 H   0  0  0  0  0  0  0  0  0  0  0  0
    5.8595  -10.5323    0.4985 H   0  0  0  0  0  0  0  0  0  0  0  0
    6.2895  -11.5268    1.8966 H   0  0  0  0  0  0  0  0  0  0  0  0
    6.2261   -9.5156    3.3550 H   0  0  0  0  0  0  0  0  0  0  0  0
    2.0768  -10.7574    3.1278 H   0  0  0  0  0  0  0  0  0  0  0  0
   -0.2905  -10.8847    2.2121 H   0  0  0  0  0  0  0  0  0  0  0  0
   -2.5298   -9.7067    2.2386 H   0  0  0  0  0  0  0  0  0  0  0  0
   -2.5890   -7.2948    2.8777 H   0  0  0  0  0  0  0  0  0  0  0  0
    1.4508   -7.1469    3.5091 H   0  0  0  0  0  0  0  0  0  0  0  0
    2.5299   -7.3643    1.8510 H   0  0  0  0  0  0  0  0  0  0  0  0
    4.7368   -3.1470   -0.8267 H   0  0  0  0  0  0  0  0  0  0  0  0
    4.9671   -2.4643    0.7889 H   0  0  0  0  0  0  0  0  0  0  0  0
    6.5346   -1.9341   -1.6634 H   0  0  0  0  0  0  0  0  0  0  0  0
    6.5883   -1.0362   -0.1582 H   0  0  0  0  0  0  0  0  0  0  0  0
    8.5391   -2.1978    0.4852 H   0  0  0  0  0  0  0  0  0  0  0  0
    8.5926   -2.8662   -1.1401 H   0  0  0  0  0  0  0  0  0  0  0  0
    4.2520  -10.8788    3.0806 H   0  0  0  0  0  0  0  0  0  0  0  0
  1  2  1  0
  1 26  1  0
  1 27  1  0
  1 28  1  0
  2 14  1  0
  2  3  1  0
  2 29  1  1
  3  4  1  0
  3 42  1  0
  4  5  1  0
  4 12  2  0
  5  6  1  0
  5 30  1  0
  6 11  1  0
  6  7  2  0
  7  8  1  0
  7 31  1  0
  8  9  2  0
  8 32  1  0
  9 10  1  0
  9 33  1  0
 10 11  2  0
 11 34  1  0
 12 13  1  0
 12 35  1  0
 13 21  1  0
 13 14  1  0
 14 15  2  0
 15 16  1  0
 16 20  2  0
 16 17  1  0
 17 18  1  0
 18 25  1  0
 18 19  2  0
 19 20  1  0
 19 23  1  0
 20 21  1  0
 21 22  2  0
 23 24  1  0
 23 36  1  0
 23 37  1  0
 24 25  1  0
 24 38  1  0
 24 39  1  0
 25 40  1  0
 25 41  1  0
M  CHG  1  12   1
M  END
>  <i_m_ct_stereo_status>  (250) 
1

>  <s_m_source_file>  (250) 
/var/tmp/pbs.5076255.sched01/tmpgyl_4d9e/126kfdajayx.sdf

>  <i_m_source_file_index>  (250) 
8

>  <i_lp_mmshare_version>  (250) 
48012

>  <i_f3d_flags>  (250) 
0

>  <s_epik_input>  (250) 
W0NIMl0xW0NIMl1bQ0gyXWMoczIpYzFjKGMzPU8pYzJuYyhuMzQpW0NASF0oW0NIM10pTj1DKFtOSF00KVtOSF1jNVtjSF1bY0hdW2NIXW5bY0hdNQ==

>  <s_epik_cmdline>  (250) 
J2VwaWtfcHl0aG9uJywgJy1waHQnLCAnMi4wJywgJy1waCcsICc3LjAnLCAnLXRuJywgJzgnLCAnLW1hJywgJzIwMCcsICctaW1hZScsICc8aW5maWxlLm1hZT4nLCAnLW9tYWUnLCAnPG91dGZpbGUubWFlPic=

>  <r_lp_tautomer_probability>  (250) 
1

>  <r_epik_Ionization_Penalty>  (250) 
0.000161584

>  <r_epik_Ionization_Penalty_Charging>  (250) 
0.000131204

>  <r_epik_Ionization_Penalty_Neutral>  (250) 
3.03794e-05

>  <r_epik_State_Penalty>  (250) 
-0

>  <r_epik_Charging_Adjusted_Penalty>  (250) 
0.000131204

>  <i_epik_Tot_Q>  (250) 
1

>  <i_epik_Tot_abs_Q>  (250) 
1

>  <s_epik_Chemistry_Notes>  (250) 
This compound has an imine and may undergo hydrolysis.

>  <s_lp_Force_Field>  (250) 
OPLS3e

>  <r_lp_Energy>  (250) 
49.4367

>  <b_lp_Chiralities_Consistent>  (250) 
1

>  <s_lp_Variant>  (250) 
84:0-1

>  <s_i_glide_gridfile>  (250) 
pfpi4k_grid

>  <i_i_glide_lignum>  (250) 
8

>  <i_i_glide_rotatable_bonds>  (250) 
2

>  <r_i_docking_score>  (250) 
-3.41246

>  <r_i_glide_ligand_efficiency>  (250) 
-0.136498

>  <r_i_glide_ligand_efficiency_sa>  (250) 
-0.399123

>  <r_i_glide_ligand_efficiency_ln>  (250) 
-0.808854

>  <r_i_glide_gscore>  (250) 
-3.41246

>  <r_i_glide_lipo>  (250) 
-0.892236

>  <r_i_glide_hbond>  (250) 
-0.0779219

>  <r_i_glide_metal>  (250) 
-0

>  <r_i_glide_rewards>  (250) 
-1.17039

>  <r_i_glide_evdw>  (250) 
-28.7137

>  <r_i_glide_ecoul>  (250) 
-0.610214

>  <r_i_glide_erotb>  (250) 
0.305773

>  <r_i_glide_esite>  (250) 
-0.0504697

>  <r_i_glide_emodel>  (250) 
-36.6117

>  <r_i_glide_energy>  (250) 
-29.3239

>  <r_i_glide_einternal>  (250) 
2.87382

>  <r_i_glide_intrahb_reward>  (250) 
-0

>  <i_i_glide_confnum>  (250) 
3

>  <i_i_glide_posenum>  (250) 
1

>  <r_i_glide_eff_state_penalty>  (250) 
0

>  <ligand_id>  (250) 
84

>  <original_smiles>  (250) 
CC1N=C(Nc2cccnc2)Nn2c1nc1sc3c(c1c2=O)CCC3

>  <smiles>  (250) 
[H]c1nc([H])c(N([H])C2=[N+]([H])n3c(nc4sc5c(c4c3=O)C([H])([H])C([H])([H])C5([H])[H])C([H])(C([H])([H])[H])N2[H])c([H])c1[H]

$$$$
84:0:1
     RDKit          3D

 42 46  0  0  1  0  0  0  0  0999 V2000
    6.3311  -10.6095    1.4719 C   0  0  0  0  0  0  0  0  0  0  0  0
    5.6608   -9.5773    2.3920 C   0  0  2  0  0  0  0  0  0  0  0  0
    4.2710   -9.9916    2.6142 N   0  0  0  0  0  0  0  0  0  0  0  0
    3.2174   -9.2024    2.3959 C   0  0  0  0  0  0  0  0  0  0  0  0
    1.9885   -9.7562    2.5748 N   0  0  0  0  0  0  0  0  0  0  0  0
    0.7877   -8.9612    2.7412 C   0  0  0  0  0  0  0  0  0  0  0  0
   -0.1833   -9.4001    3.6751 C   0  0  0  0  0  0  0  0  0  0  0  0
   -1.3679   -8.6558    3.7728 C   0  0  0  0  0  0  0  0  0  0  0  0
   -1.5377   -7.5236    2.9643 C   0  0  0  0  0  0  0  0  0  0  0  0
   -0.6192   -7.0737    2.0864 N   0  0  0  0  0  0  0  0  0  0  0  0
    0.4899   -7.8203    1.9561 C   0  0  0  0  0  0  0  0  0  0  0  0
    3.4082   -7.9285    1.9807 N   0  0  0  0  0  0  0  0  0  0  0  0
    4.6813   -7.4232    1.7085 N   0  0  0  0  0  0  0  0  0  0  0  0
    5.8892   -8.1481    1.9099 C   0  0  0  0  0  0  0  0  0  0  0  0
    7.0905   -7.6970    1.7414 N   0  0  0  0  0  0  0  0  0  0  0  0
    7.1048   -6.3925    1.2867 C   0  0  0  0  0  0  0  0  0  0  0  0
    8.6179   -5.5826    0.9725 S   0  0  0  0  0  0  0  0  0  0  0  0
    7.7846   -4.1512    0.4826 C   0  0  0  0  0  0  0  0  0  0  0  0
    6.4459   -4.2731    0.5437 C   0  0  0  0  0  0  0  0  0  0  0  0
    6.0268   -5.5731    1.0172 C   0  0  0  0  0  0  0  0  0  0  0  0
    4.6714   -6.1487    1.2481 C   0  0  0  0  0  0  0  0  0  0  0  0
    3.6494   -5.5016    1.0490 O   0  0  0  0  0  0  0  0  0  0  0  0
    5.8123   -2.9829    0.0936 C   0  0  0  0  0  0  0  0  0  0  0  0
    7.0221   -2.1010   -0.3581 C   0  0  0  0  0  0  0  0  0  0  0  0
    8.3167   -2.8580    0.0102 C   0  0  0  0  0  0  0  0  0  0  0  0
    7.4008  -10.4278    1.3840 H   0  0  0  0  0  0  0  0  0  0  0  0
    5.8971  -10.5836    0.4762 H   0  0  0  0  0  0  0  0  0  0  0  0
    6.2136  -11.6289    1.8553 H   0  0  0  0  0  0  0  0  0  0  0  0
    6.1484   -9.6517    3.3635 H   0  0  0  0  0  0  0  0  0  0  0  0
    1.9875  -10.7231    2.8948 H   0  0  0  0  0  0  0  0  0  0  0  0
   -0.0472  -10.2903    4.2817 H   0  0  0  0  0  0  0  0  0  0  0  0
   -2.1576   -8.9576    4.4448 H   0  0  0  0  0  0  0  0  0  0  0  0
   -2.4521   -6.9674    3.0170 H   0  0  0  0  0  0  0  0  0  0  0  0
    1.1297   -7.4666    1.1678 H   0  0  0  0  0  0  0  0  0  0  0  0
    2.6432   -7.3015    1.7666 H   0  0  0  0  0  0  0  0  0  0  0  0
    5.1144   -3.1304   -0.7313 H   0  0  0  0  0  0  0  0  0  0  0  0
    5.2816   -2.4963    0.9131 H   0  0  0  0  0  0  0  0  0  0  0  0
    6.9946   -1.9769   -1.4390 H   0  0  0  0  0  0  0  0  0  0  0  0
    7.0077   -1.1082    0.0901 H   0  0  0  0  0  0  0  0  0  0  0  0
    8.8728   -2.3634    0.8026 H   0  0  0  0  0  0  0  0  0  0  0  0
    8.9891   -2.9859   -0.8366 H   0  0  0  0  0  0  0  0  0  0  0  0
    4.1475  -10.9494    2.9385 H   0  0  0  0  0  0  0  0  0  0  0  0
  1  2  1  0
  1 26  1  0
  1 27  1  0
  1 28  1  0
  2 14  1  0
  2  3  1  0
  2 29  1  1
  3  4  1  0
  3 42  1  0
  4  5  1  0
  4 12  2  0
  5  6  1  0
  5 30  1  0
  6 11  1  0
  6  7  2  0
  7  8  1  0
  7 31  1  0
  8  9  2  0
  8 32  1  0
  9 10  1  0
  9 33  1  0
 10 11  2  0
 11 34  1  0
 12 13  1  0
 12 35  1  0
 13 21  1  0
 13 14  1  0
 14 15  2  0
 15 16  1  0
 16 20  2  0
 16 17  1  0
 17 18  1  0
 18 25  1  0
 18 19  2  0
 19 20  1  0
 19 23  1  0
 20 21  1  0
 21 22  2  0
 23 24  1  0
 23 36  1  0
 23 37  1  0
 24 25  1  0
 24 38  1  0
 24 39  1  0
 25 40  1  0
 25 41  1  0
M  CHG  1  12   1
M  END
>  <i_m_ct_stereo_status>  (251) 
1

>  <s_m_source_file>  (251) 
/var/tmp/pbs.5076255.sched01/tmpgyl_4d9e/126kfdajayx.sdf

>  <i_m_source_file_index>  (251) 
8

>  <i_lp_mmshare_version>  (251) 
48012

>  <i_f3d_flags>  (251) 
0

>  <s_epik_input>  (251) 
W0NIMl0xW0NIMl1bQ0gyXWMoczIpYzFjKGMzPU8pYzJuYyhuMzQpW0NASF0oW0NIM10pTj1DKFtOSF00KVtOSF1jNVtjSF1bY0hdW2NIXW5bY0hdNQ==

>  <s_epik_cmdline>  (251) 
J2VwaWtfcHl0aG9uJywgJy1waHQnLCAnMi4wJywgJy1waCcsICc3LjAnLCAnLXRuJywgJzgnLCAnLW1hJywgJzIwMCcsICctaW1hZScsICc8aW5maWxlLm1hZT4nLCAnLW9tYWUnLCAnPG91dGZpbGUubWFlPic=

>  <r_lp_tautomer_probability>  (251) 
1

>  <r_epik_Ionization_Penalty>  (251) 
0.000161584

>  <r_epik_Ionization_Penalty_Charging>  (251) 
0.000131204

>  <r_epik_Ionization_Penalty_Neutral>  (251) 
3.03794e-05

>  <r_epik_State_Penalty>  (251) 
-0

>  <r_epik_Charging_Adjusted_Penalty>  (251) 
0.000131204

>  <i_epik_Tot_Q>  (251) 
1

>  <i_epik_Tot_abs_Q>  (251) 
1

>  <s_epik_Chemistry_Notes>  (251) 
This compound has an imine and may undergo hydrolysis.

>  <s_lp_Force_Field>  (251) 
OPLS3e

>  <r_lp_Energy>  (251) 
49.4367

>  <b_lp_Chiralities_Consistent>  (251) 
1

>  <s_lp_Variant>  (251) 
84:0-1

>  <s_i_glide_gridfile>  (251) 
pfpi4k_grid

>  <i_i_glide_lignum>  (251) 
8

>  <i_i_glide_rotatable_bonds>  (251) 
2

>  <r_i_docking_score>  (251) 
-3.3914

>  <r_i_glide_ligand_efficiency>  (251) 
-0.135656

>  <r_i_glide_ligand_efficiency_sa>  (251) 
-0.396661

>  <r_i_glide_ligand_efficiency_ln>  (251) 
-0.803865

>  <r_i_glide_gscore>  (251) 
-3.3914

>  <r_i_glide_lipo>  (251) 
-0.679852

>  <r_i_glide_hbond>  (251) 
-0.136587

>  <r_i_glide_metal>  (251) 
-0

>  <r_i_glide_rewards>  (251) 
-1.16878

>  <r_i_glide_evdw>  (251) 
-28.4464

>  <r_i_glide_ecoul>  (251) 
-1.5391

>  <r_i_glide_erotb>  (251) 
0.305773

>  <r_i_glide_esite>  (251) 
-0.0587745

>  <r_i_glide_emodel>  (251) 
-37.8178

>  <r_i_glide_energy>  (251) 
-29.9855

>  <r_i_glide_einternal>  (251) 
1.34478

>  <r_i_glide_intrahb_reward>  (251) 
-0

>  <i_i_glide_confnum>  (251) 
4

>  <i_i_glide_posenum>  (251) 
39

>  <r_i_glide_eff_state_penalty>  (251) 
0

>  <ligand_id>  (251) 
84

>  <original_smiles>  (251) 
CC1N=C(Nc2cccnc2)Nn2c1nc1sc3c(c1c2=O)CCC3

>  <smiles>  (251) 
[H]c1nc([H])c(N([H])C2=[N+]([H])n3c(nc4sc5c(c4c3=O)C([H])([H])C([H])([H])C5([H])[H])C([H])(C([H])([H])[H])N2[H])c([H])c1[H]

$$$$
84:0:2
     RDKit          3D

 42 46  0  0  1  0  0  0  0  0999 V2000
    6.2485  -10.6750    1.4905 C   0  0  0  0  0  0  0  0  0  0  0  0
    5.5909   -9.6494    2.4322 C   0  0  2  0  0  0  0  0  0  0  0  0
    4.2153  -10.0565    2.7184 N   0  0  0  0  0  0  0  0  0  0  0  0
    3.1453   -9.2694    2.5642 C   0  0  0  0  0  0  0  0  0  0  0  0
    1.9618   -9.8136    2.9222 N   0  0  0  0  0  0  0  0  0  0  0  0
    0.7208   -9.0765    2.9434 C   0  0  0  0  0  0  0  0  0  0  0  0
    0.6382   -7.8101    3.5552 C   0  0  0  0  0  0  0  0  0  0  0  0
   -0.6272   -7.2048    3.6671 C   0  0  0  0  0  0  0  0  0  0  0  0
   -1.7519   -7.8974    3.1708 C   0  0  0  0  0  0  0  0  0  0  0  0
   -1.6774   -9.0907    2.5518 N   0  0  0  0  0  0  0  0  0  0  0  0
   -0.4709   -9.6896    2.4839 C   0  0  0  0  0  0  0  0  0  0  0  0
    3.2848   -8.0102    2.0741 N   0  0  0  0  0  0  0  0  0  0  0  0
    4.5623   -7.4945    1.7770 N   0  0  0  0  0  0  0  0  0  0  0  0
    5.7880   -8.2154    1.9474 C   0  0  0  0  0  0  0  0  0  0  0  0
    6.9847   -7.7646    1.7465 N   0  0  0  0  0  0  0  0  0  0  0  0
    6.9910   -6.4596    1.2981 C   0  0  0  0  0  0  0  0  0  0  0  0
    8.5054   -5.6550    0.9302 S   0  0  0  0  0  0  0  0  0  0  0  0
    7.6511   -4.2175    0.4808 C   0  0  0  0  0  0  0  0  0  0  0  0
    6.3130   -4.3354    0.5937 C   0  0  0  0  0  0  0  0  0  0  0  0
    5.9060   -5.6360    1.0741 C   0  0  0  0  0  0  0  0  0  0  0  0
    4.5499   -6.2075    1.3466 C   0  0  0  0  0  0  0  0  0  0  0  0
    3.5289   -5.5494    1.1983 O   0  0  0  0  0  0  0  0  0  0  0  0
    5.6688   -3.0424    0.1764 C   0  0  0  0  0  0  0  0  0  0  0  0
    6.8616   -2.1573   -0.3158 C   0  0  0  0  0  0  0  0  0  0  0  0
    8.1681   -2.9198    0.0015 C   0  0  0  0  0  0  0  0  0  0  0  0
    7.3137  -10.4897    1.3689 H   0  0  0  0  0  0  0  0  0  0  0  0
    5.8113  -10.6417    0.4948 H   0  0  0  0  0  0  0  0  0  0  0  0
    6.1446  -11.6971    1.8669 H   0  0  0  0  0  0  0  0  0  0  0  0
    6.1154   -9.7297    3.3858 H   0  0  0  0  0  0  0  0  0  0  0  0
    1.9311  -10.8316    2.9395 H   0  0  0  0  0  0  0  0  0  0  0  0
    1.5203   -7.3373    3.9726 H   0  0  0  0  0  0  0  0  0  0  0  0
   -0.7398   -6.2580    4.1674 H   0  0  0  0  0  0  0  0  0  0  0  0
   -2.7375   -7.4690    3.2526 H   0  0  0  0  0  0  0  0  0  0  0  0
   -0.4446  -10.6576    2.0152 H   0  0  0  0  0  0  0  0  0  0  0  0
    2.4960   -7.3859    1.9174 H   0  0  0  0  0  0  0  0  0  0  0  0
    4.9399   -3.1859   -0.6214 H   0  0  0  0  0  0  0  0  0  0  0  0
    5.1694   -2.5631    1.0190 H   0  0  0  0  0  0  0  0  0  0  0  0
    6.7930   -2.0240   -1.3949 H   0  0  0  0  0  0  0  0  0  0  0  0
    6.8612   -1.1643    0.1348 H   0  0  0  0  0  0  0  0  0  0  0  0
    8.7521   -2.4277    0.7774 H   0  0  0  0  0  0  0  0  0  0  0  0
    8.8103   -3.0385   -0.8708 H   0  0  0  0  0  0  0  0  0  0  0  0
    4.1039  -11.0153    3.0419 H   0  0  0  0  0  0  0  0  0  0  0  0
  1  2  1  0
  1 26  1  0
  1 27  1  0
  1 28  1  0
  2 14  1  0
  2  3  1  0
  2 29  1  1
  3  4  1  0
  3 42  1  0
  4  5  1  0
  4 12  2  0
  5  6  1  0
  5 30  1  0
  6 11  1  0
  6  7  2  0
  7  8  1  0
  7 31  1  0
  8  9  2  0
  8 32  1  0
  9 10  1  0
  9 33  1  0
 10 11  2  0
 11 34  1  0
 12 13  1  0
 12 35  1  0
 13 21  1  0
 13 14  1  0
 14 15  2  0
 15 16  1  0
 16 20  2  0
 16 17  1  0
 17 18  1  0
 18 25  1  0
 18 19  2  0
 19 20  1  0
 19 23  1  0
 20 21  1  0
 21 22  2  0
 23 24  1  0
 23 36  1  0
 23 37  1  0
 24 25  1  0
 24 38  1  0
 24 39  1  0
 25 40  1  0
 25 41  1  0
M  CHG  1  12   1
M  END
>  <i_m_ct_stereo_status>  (252) 
1

>  <s_m_source_file>  (252) 
/var/tmp/pbs.5076255.sched01/tmpgyl_4d9e/126kfdajayx.sdf

>  <i_m_source_file_index>  (252) 
8

>  <i_lp_mmshare_version>  (252) 
48012

>  <i_f3d_flags>  (252) 
0

>  <s_epik_input>  (252) 
W0NIMl0xW0NIMl1bQ0gyXWMoczIpYzFjKGMzPU8pYzJuYyhuMzQpW0NASF0oW0NIM10pTj1DKFtOSF00KVtOSF1jNVtjSF1bY0hdW2NIXW5bY0hdNQ==

>  <s_epik_cmdline>  (252) 
J2VwaWtfcHl0aG9uJywgJy1waHQnLCAnMi4wJywgJy1waCcsICc3LjAnLCAnLXRuJywgJzgnLCAnLW1hJywgJzIwMCcsICctaW1hZScsICc8aW5maWxlLm1hZT4nLCAnLW9tYWUnLCAnPG91dGZpbGUubWFlPic=

>  <r_lp_tautomer_probability>  (252) 
1

>  <r_epik_Ionization_Penalty>  (252) 
0.000161584

>  <r_epik_Ionization_Penalty_Charging>  (252) 
0.000131204

>  <r_epik_Ionization_Penalty_Neutral>  (252) 
3.03794e-05

>  <r_epik_State_Penalty>  (252) 
-0

>  <r_epik_Charging_Adjusted_Penalty>  (252) 
0.000131204

>  <i_epik_Tot_Q>  (252) 
1

>  <i_epik_Tot_abs_Q>  (252) 
1

>  <s_epik_Chemistry_Notes>  (252) 
This compound has an imine and may undergo hydrolysis.

>  <s_lp_Force_Field>  (252) 
OPLS3e

>  <r_lp_Energy>  (252) 
49.4367

>  <b_lp_Chiralities_Consistent>  (252) 
1

>  <s_lp_Variant>  (252) 
84:0-1

>  <s_i_glide_gridfile>  (252) 
pfpi4k_grid

>  <i_i_glide_lignum>  (252) 
8

>  <i_i_glide_rotatable_bonds>  (252) 
2

>  <r_i_docking_score>  (252) 
-3.10975

>  <r_i_glide_ligand_efficiency>  (252) 
-0.12439

>  <r_i_glide_ligand_efficiency_sa>  (252) 
-0.363718

>  <r_i_glide_ligand_efficiency_ln>  (252) 
-0.737103

>  <r_i_glide_gscore>  (252) 
-3.10975

>  <r_i_glide_lipo>  (252) 
-0.785342

>  <r_i_glide_hbond>  (252) 
0

>  <r_i_glide_metal>  (252) 
-0

>  <r_i_glide_rewards>  (252) 
-1.14348

>  <r_i_glide_evdw>  (252) 
-30.0388

>  <r_i_glide_ecoul>  (252) 
0.496022

>  <r_i_glide_erotb>  (252) 
0.305773

>  <r_i_glide_esite>  (252) 
-0.0591618

>  <r_i_glide_emodel>  (252) 
-36.1175

>  <r_i_glide_energy>  (252) 
-29.5428

>  <r_i_glide_einternal>  (252) 
2.79768

>  <r_i_glide_intrahb_reward>  (252) 
-0

>  <i_i_glide_confnum>  (252) 
5

>  <i_i_glide_posenum>  (252) 
18

>  <r_i_glide_eff_state_penalty>  (252) 
0

>  <ligand_id>  (252) 
84

>  <original_smiles>  (252) 
CC1N=C(Nc2cccnc2)Nn2c1nc1sc3c(c1c2=O)CCC3

>  <smiles>  (252) 
[H]c1nc([H])c(N([H])C2=[N+]([H])n3c(nc4sc5c(c4c3=O)C([H])([H])C([H])([H])C5([H])[H])C([H])(C([H])([H])[H])N2[H])c([H])c1[H]

$$$$
85:0:0
     RDKit          3D

 40 44  0  0  1  0  0  0  0  0999 V2000
    4.3168   -4.7512    0.4369 C   0  0  0  0  0  0  0  0  0  0  0  0
    5.1205   -4.1425   -0.5397 C   0  0  0  0  0  0  0  0  0  0  0  0
    4.5143   -3.4186   -1.5850 C   0  0  0  0  0  0  0  0  0  0  0  0
    5.1085   -2.7429   -2.6527 N   0  0  0  0  0  0  0  0  0  0  0  0
    4.2342   -2.1912   -3.4554 N   0  0  0  0  0  0  0  0  0  0  0  0
    2.6430   -2.4796   -2.9948 S   0  0  0  0  0  0  0  0  0  0  0  0
    3.1074   -3.3669   -1.5616 C   0  0  0  0  0  0  0  0  0  0  0  0
    2.2753   -3.9325   -0.6346 N   0  0  0  0  0  0  0  0  0  0  0  0
    2.9003   -4.6405    0.3428 C   0  0  0  0  0  0  0  0  0  0  0  0
    2.0295   -5.2520    1.2104 O   0  0  0  0  0  0  0  0  0  0  0  0
    2.5914   -6.1765    2.1368 C   0  0  0  0  0  0  0  0  0  0  0  0
    1.4961   -6.9968    2.8192 C   0  0  1  0  0  0  0  0  0  0  0  0
    0.6015   -7.6576    1.7368 C   0  0  0  0  0  0  0  0  0  0  0  0
   -0.4944   -8.4907    2.4179 C   0  0  2  0  0  0  0  0  0  0  0  0
   -1.3512   -7.5681    3.3049 C   0  0  0  0  0  0  0  0  0  0  0  0
   -0.4679   -6.9331    4.3969 C   0  0  1  0  0  0  0  0  0  0  0  0
    0.1779   -8.0449    5.2506 C   0  0  0  0  0  0  0  0  0  0  0  0
    1.0421   -8.9517    4.3532 C   0  0  1  0  0  0  0  0  0  0  0  0
    0.1695   -9.5942    3.2602 C   0  0  0  0  0  0  0  0  0  0  0  0
    2.1443   -8.1099    3.6856 C   0  0  0  0  0  0  0  0  0  0  0  0
    0.6402   -6.0925    3.7348 C   0  0  0  0  0  0  0  0  0  0  0  0
    4.8282   -5.2929    1.2182 H   0  0  0  0  0  0  0  0  0  0  0  0
    6.1863   -4.2405   -0.4854 H   0  0  0  0  0  0  0  0  0  0  0  0
    3.2379   -6.8748    1.6037 H   0  0  0  0  0  0  0  0  0  0  0  0
    3.1840   -5.6290    2.8733 H   0  0  0  0  0  0  0  0  0  0  0  0
    0.1369   -6.9154    1.0872 H   0  0  0  0  0  0  0  0  0  0  0  0
    1.2164   -8.2813    1.0864 H   0  0  0  0  0  0  0  0  0  0  0  0
   -1.1278   -8.9492    1.6634 H   0  0  0  0  0  0  0  0  0  0  0  0
   -1.8055   -6.7918    2.6911 H   0  0  0  0  0  0  0  0  0  0  0  0
   -2.1661   -8.1359    3.7545 H   0  0  0  0  0  0  0  0  0  0  0  0
   -1.0697   -6.2873    5.0332 H   0  0  0  0  0  0  0  0  0  0  0  0
    0.7907   -7.6082    6.0399 H   0  0  0  0  0  0  0  0  0  0  0  0
   -0.5895   -8.6434    5.7420 H   0  0  0  0  0  0  0  0  0  0  0  0
    1.4943   -9.7361    4.9580 H   0  0  0  0  0  0  0  0  0  0  0  0
   -0.5855  -10.2344    3.7106 H   0  0  0  0  0  0  0  0  0  0  0  0
    0.7722  -10.2407    2.6223 H   0  0  0  0  0  0  0  0  0  0  0  0
    2.7806   -8.7519    3.0725 H   0  0  0  0  0  0  0  0  0  0  0  0
    2.7972   -7.6730    4.4436 H   0  0  0  0  0  0  0  0  0  0  0  0
    1.2660   -5.6251    4.4954 H   0  0  0  0  0  0  0  0  0  0  0  0
    0.2161   -5.2718    3.1579 H   0  0  0  0  0  0  0  0  0  0  0  0
  1  9  2  0
  1  2  1  0
  1 22  1  0
  2  3  2  0
  2 23  1  0
  3  7  1  0
  3  4  1  0
  4  5  2  0
  5  6  1  0
  6  7  1  0
  7  8  2  0
  8  9  1  0
  9 10  1  0
 10 11  1  0
 12 11  1  6
 11 24  1  0
 11 25  1  0
 12 20  1  0
 12 21  1  0
 12 13  1  0
 13 14  1  0
 13 26  1  0
 13 27  1  0
 14 19  1  0
 14 15  1  0
 14 28  1  6
 15 16  1  0
 15 29  1  0
 15 30  1  0
 16 17  1  0
 16 21  1  0
 16 31  1  1
 17 18  1  0
 17 32  1  0
 17 33  1  0
 18 19  1  0
 18 20  1  0
 18 34  1  1
 19 35  1  0
 19 36  1  0
 20 37  1  0
 20 38  1  0
 21 39  1  0
 21 40  1  0
M  END
>  <i_m_ct_stereo_status>  (253) 
1

>  <s_m_source_file>  (253) 
/var/tmp/pbs.5076255.sched01/tmpgyl_4d9e/126kfdajayx.sdf

>  <i_m_source_file_index>  (253) 
9

>  <i_lp_mmshare_version>  (253) 
48012

>  <i_f3d_flags>  (253) 
0

>  <s_epik_input>  (253) 
bjFuc2MoYzEyKW5jKFtjSF1bY0hdMilPW0NIMl1DMzRbQ0gyXVtDQEhdNVtDSDJdW0NAQEhdKFtDSDJdNClbQ0gyXVtDQEhdKFtDSDJdNSlbQ0gyXTM=

>  <s_epik_cmdline>  (253) 
J2VwaWtfcHl0aG9uJywgJy1waHQnLCAnMi4wJywgJy1waCcsICc3LjAnLCAnLXRuJywgJzgnLCAnLW1hJywgJzIwMCcsICctaW1hZScsICc8aW5maWxlLm1hZT4nLCAnLW9tYWUnLCAnPG91dGZpbGUubWFlPic=

>  <r_lp_tautomer_probability>  (253) 
1

>  <r_epik_Ionization_Penalty>  (253) 
2.52428e-08

>  <r_epik_Ionization_Penalty_Charging>  (253) 
0

>  <r_epik_Ionization_Penalty_Neutral>  (253) 
2.52428e-08

>  <r_epik_State_Penalty>  (253) 
-0

>  <r_epik_Charging_Adjusted_Penalty>  (253) 
0

>  <i_epik_Tot_Q>  (253) 
0

>  <i_epik_Tot_abs_Q>  (253) 
0

>  <s_lp_Force_Field>  (253) 
OPLS3e

>  <r_lp_Energy>  (253) 
13.276

>  <b_lp_Chiralities_Consistent>  (253) 
1

>  <s_lp_Variant>  (253) 
85:0-1

>  <s_i_glide_gridfile>  (253) 
pfpi4k_grid

>  <i_i_glide_lignum>  (253) 
9

>  <i_i_glide_rotatable_bonds>  (253) 
3

>  <r_i_docking_score>  (253) 
-2.6413

>  <r_i_glide_ligand_efficiency>  (253) 
-0.125776

>  <r_i_glide_ligand_efficiency_sa>  (253) 
-0.347007

>  <r_i_glide_ligand_efficiency_ln>  (253) 
-0.653056

>  <r_i_glide_gscore>  (253) 
-2.6413

>  <r_i_glide_lipo>  (253) 
-0.244301

>  <r_i_glide_hbond>  (253) 
-0.0407658

>  <r_i_glide_metal>  (253) 
-0

>  <r_i_glide_rewards>  (253) 
-1.35404

>  <r_i_glide_evdw>  (253) 
-26.9027

>  <r_i_glide_ecoul>  (253) 
-1.76372

>  <r_i_glide_erotb>  (253) 
0.607502

>  <r_i_glide_esite>  (253) 
0

>  <r_i_glide_emodel>  (253) 
-30.4198

>  <r_i_glide_energy>  (253) 
-28.6665

>  <r_i_glide_einternal>  (253) 
6.09002

>  <r_i_glide_intrahb_reward>  (253) 
-0

>  <i_i_glide_confnum>  (253) 
2

>  <i_i_glide_posenum>  (253) 
23

>  <r_i_glide_eff_state_penalty>  (253) 
0

>  <ligand_id>  (253) 
85

>  <original_smiles>  (253) 
c1cc2nnsc2nc1OCC12CC3CC(CC(C3)C1)C2

>  <smiles>  (253) 
[H]c1c(OC([H])([H])C23C([H])([H])C4([H])C([H])([H])C([H])(C([H])([H])C([H])(C4([H])[H])C2([H])[H])C3([H])[H])nc2snnc2c1[H]

$$$$
85:0:1
     RDKit          3D

 40 44  0  0  1  0  0  0  0  0999 V2000
    2.0393   -4.7832    3.9925 C   0  0  0  0  0  0  0  0  0  0  0  0
    1.0322   -5.4561    4.7169 C   0  0  0  0  0  0  0  0  0  0  0  0
    0.2364   -6.4189    4.0583 C   0  0  0  0  0  0  0  0  0  0  0  0
   -0.8290   -7.1849    4.5374 N   0  0  0  0  0  0  0  0  0  0  0  0
   -1.3490   -7.9735    3.6370 N   0  0  0  0  0  0  0  0  0  0  0  0
   -0.5767   -7.8569    2.1456 S   0  0  0  0  0  0  0  0  0  0  0  0
    0.5400   -6.6348    2.6959 C   0  0  0  0  0  0  0  0  0  0  0  0
    1.4806   -5.9920    1.9454 N   0  0  0  0  0  0  0  0  0  0  0  0
    2.2256   -5.0808    2.6257 C   0  0  0  0  0  0  0  0  0  0  0  0
    3.2089   -4.3952    1.9504 O   0  0  0  0  0  0  0  0  0  0  0  0
    3.2970   -4.5455    0.5384 C   0  0  0  0  0  0  0  0  0  0  0  0
    4.2115   -3.4408   -0.0122 C   0  0  1  0  0  0  0  0  0  0  0  0
    5.6497   -3.5901    0.5516 C   0  0  0  0  0  0  0  0  0  0  0  0
    6.5584   -2.4811   -0.0181 C   0  0  2  0  0  0  0  0  0  0  0  0
    5.9919   -1.1048    0.3958 C   0  0  0  0  0  0  0  0  0  0  0  0
    4.5789   -0.9368   -0.1986 C   0  0  1  0  0  0  0  0  0  0  0  0
    4.6313   -1.0510   -1.7365 C   0  0  0  0  0  0  0  0  0  0  0  0
    5.1850   -2.4370   -2.1274 C   0  0  1  0  0  0  0  0  0  0  0  0
    6.6050   -2.6109   -1.5553 C   0  0  0  0  0  0  0  0  0  0  0  0
    4.2691   -3.5394   -1.5574 C   0  0  0  0  0  0  0  0  0  0  0  0
    3.6597   -2.0392    0.3669 C   0  0  0  0  0  0  0  0  0  0  0  0
    2.6598   -4.0385    4.4735 H   0  0  0  0  0  0  0  0  0  0  0  0
    0.8680   -5.2253    5.7557 H   0  0  0  0  0  0  0  0  0  0  0  0
    3.6895   -5.5339    0.2936 H   0  0  0  0  0  0  0  0  0  0  0  0
    2.3140   -4.4516    0.0750 H   0  0  0  0  0  0  0  0  0  0  0  0
    5.6433   -3.5313    1.6420 H   0  0  0  0  0  0  0  0  0  0  0  0
    6.0526   -4.5731    0.3016 H   0  0  0  0  0  0  0  0  0  0  0  0
    7.5630   -2.5981    0.3883 H   0  0  0  0  0  0  0  0  0  0  0  0
    5.9486   -1.0328    1.4830 H   0  0  0  0  0  0  0  0  0  0  0  0
    6.6424   -0.2948    0.0751 H   0  0  0  0  0  0  0  0  0  0  0  0
    4.1838    0.0400    0.0797 H   0  0  0  0  0  0  0  0  0  0  0  0
    3.6328   -0.9127   -2.1556 H   0  0  0  0  0  0  0  0  0  0  0  0
    5.2517   -0.2592   -2.1549 H   0  0  0  0  0  0  0  0  0  0  0  0
    5.2155   -2.5261   -3.2126 H   0  0  0  0  0  0  0  0  0  0  0  0
    7.2820   -1.8817   -1.9898 H   0  0  0  0  0  0  0  0  0  0  0  0
    7.0001   -3.5860   -1.8363 H   0  0  0  0  0  0  0  0  0  0  0  0
    4.6339   -4.5230   -1.8567 H   0  0  0  0  0  0  0  0  0  0  0  0
    3.2659   -3.4470   -1.9779 H   0  0  0  0  0  0  0  0  0  0  0  0
    2.6440   -1.9163   -0.0125 H   0  0  0  0  0  0  0  0  0  0  0  0
    3.5893   -1.9292    1.4505 H   0  0  0  0  0  0  0  0  0  0  0  0
  1  9  2  0
  1  2  1  0
  1 22  1  0
  2  3  2  0
  2 23  1  0
  3  7  1  0
  3  4  1  0
  4  5  2  0
  5  6  1  0
  6  7  1  0
  7  8  2  0
  8  9  1  0
  9 10  1  0
 10 11  1  0
 12 11  1  1
 11 24  1  0
 11 25  1  0
 12 20  1  0
 12 21  1  0
 12 13  1  0
 13 14  1  0
 13 26  1  0
 13 27  1  0
 14 19  1  0
 14 15  1  0
 14 28  1  1
 15 16  1  0
 15 29  1  0
 15 30  1  0
 16 17  1  0
 16 21  1  0
 16 31  1  6
 17 18  1  0
 17 32  1  0
 17 33  1  0
 18 19  1  0
 18 20  1  0
 18 34  1  6
 19 35  1  0
 19 36  1  0
 20 37  1  0
 20 38  1  0
 21 39  1  0
 21 40  1  0
M  END
>  <i_m_ct_stereo_status>  (254) 
1

>  <s_m_source_file>  (254) 
/var/tmp/pbs.5076255.sched01/tmpgyl_4d9e/126kfdajayx.sdf

>  <i_m_source_file_index>  (254) 
9

>  <i_lp_mmshare_version>  (254) 
48012

>  <i_f3d_flags>  (254) 
0

>  <s_epik_input>  (254) 
bjFuc2MoYzEyKW5jKFtjSF1bY0hdMilPW0NIMl1DMzRbQ0gyXVtDQEhdNVtDSDJdW0NAQEhdKFtDSDJdNClbQ0gyXVtDQEhdKFtDSDJdNSlbQ0gyXTM=

>  <s_epik_cmdline>  (254) 
J2VwaWtfcHl0aG9uJywgJy1waHQnLCAnMi4wJywgJy1waCcsICc3LjAnLCAnLXRuJywgJzgnLCAnLW1hJywgJzIwMCcsICctaW1hZScsICc8aW5maWxlLm1hZT4nLCAnLW9tYWUnLCAnPG91dGZpbGUubWFlPic=

>  <r_lp_tautomer_probability>  (254) 
1

>  <r_epik_Ionization_Penalty>  (254) 
2.52428e-08

>  <r_epik_Ionization_Penalty_Charging>  (254) 
0

>  <r_epik_Ionization_Penalty_Neutral>  (254) 
2.52428e-08

>  <r_epik_State_Penalty>  (254) 
-0

>  <r_epik_Charging_Adjusted_Penalty>  (254) 
0

>  <i_epik_Tot_Q>  (254) 
0

>  <i_epik_Tot_abs_Q>  (254) 
0

>  <s_lp_Force_Field>  (254) 
OPLS3e

>  <r_lp_Energy>  (254) 
13.276

>  <b_lp_Chiralities_Consistent>  (254) 
1

>  <s_lp_Variant>  (254) 
85:0-1

>  <s_i_glide_gridfile>  (254) 
pfpi4k_grid

>  <i_i_glide_lignum>  (254) 
9

>  <i_i_glide_rotatable_bonds>  (254) 
3

>  <r_i_docking_score>  (254) 
-2.60806

>  <r_i_glide_ligand_efficiency>  (254) 
-0.124194

>  <r_i_glide_ligand_efficiency_sa>  (254) 
-0.342641

>  <r_i_glide_ligand_efficiency_ln>  (254) 
-0.644839

>  <r_i_glide_gscore>  (254) 
-2.60806

>  <r_i_glide_lipo>  (254) 
-0.275906

>  <r_i_glide_hbond>  (254) 
-0.0144756

>  <r_i_glide_metal>  (254) 
-0

>  <r_i_glide_rewards>  (254) 
-1.35404

>  <r_i_glide_evdw>  (254) 
-25.6793

>  <r_i_glide_ecoul>  (254) 
-1.13924

>  <r_i_glide_erotb>  (254) 
0.607502

>  <r_i_glide_esite>  (254) 
-0.116292

>  <r_i_glide_emodel>  (254) 
-31.1475

>  <r_i_glide_energy>  (254) 
-26.8186

>  <r_i_glide_einternal>  (254) 
0.974435

>  <r_i_glide_intrahb_reward>  (254) 
-0

>  <i_i_glide_confnum>  (254) 
5

>  <i_i_glide_posenum>  (254) 
10

>  <r_i_glide_eff_state_penalty>  (254) 
0

>  <ligand_id>  (254) 
85

>  <original_smiles>  (254) 
c1cc2nnsc2nc1OCC12CC3CC(CC(C3)C1)C2

>  <smiles>  (254) 
[H]c1c(OC([H])([H])C23C([H])([H])C4([H])C([H])([H])C([H])(C([H])([H])C([H])(C4([H])[H])C2([H])[H])C3([H])[H])nc2snnc2c1[H]

$$$$
85:0:2
     RDKit          3D

 40 44  0  0  1  0  0  0  0  0999 V2000
    4.1461   -4.4499    0.8837 C   0  0  0  0  0  0  0  0  0  0  0  0
    4.9385   -3.6168    0.0439 C   0  0  0  0  0  0  0  0  0  0  0  0
    4.3865   -3.0886   -1.1328 C   0  0  0  0  0  0  0  0  0  0  0  0
    4.9846   -2.2707   -2.0981 N   0  0  0  0  0  0  0  0  0  0  0  0
    4.1764   -1.9809   -3.0918 N   0  0  0  0  0  0  0  0  0  0  0  0
    2.6601   -2.6863   -2.9095 S   0  0  0  0  0  0  0  0  0  0  0  0
    3.0407   -3.4257   -1.3818 C   0  0  0  0  0  0  0  0  0  0  0  0
    2.2255   -4.2198   -0.5979 N   0  0  0  0  0  0  0  0  0  0  0  0
    2.8056   -4.7330    0.5072 C   0  0  0  0  0  0  0  0  0  0  0  0
    1.9553   -5.5696    1.1954 O   0  0  0  0  0  0  0  0  0  0  0  0
    2.4626   -6.1199    2.4084 C   0  0  0  0  0  0  0  0  0  0  0  0
    1.5393   -7.1929    2.9832 C   0  0  1  0  0  0  0  0  0  0  0  0
    1.4515   -8.3736    1.9812 C   0  0  0  0  0  0  0  0  0  0  0  0
    0.5240   -9.4579    2.5508 C   0  0  2  0  0  0  0  0  0  0  0  0
   -0.8758   -8.8538    2.7674 C   0  0  0  0  0  0  0  0  0  0  0  0
   -0.7921   -7.7024    3.7900 C   0  0  1  0  0  0  0  0  0  0  0  0
   -0.2206   -8.2260    5.1219 C   0  0  0  0  0  0  0  0  0  0  0  0
    1.1836   -8.8143    4.8894 C   0  0  1  0  0  0  0  0  0  0  0  0
    1.0991   -9.9729    3.8815 C   0  0  0  0  0  0  0  0  0  0  0  0
    2.1117   -7.7189    4.3265 C   0  0  0  0  0  0  0  0  0  0  0  0
    0.1334   -6.6071    3.2347 C   0  0  0  0  0  0  0  0  0  0  0  0
    4.6347   -4.8076    1.7724 H   0  0  0  0  0  0  0  0  0  0  0  0
    5.9461   -3.4261    0.3325 H   0  0  0  0  0  0  0  0  0  0  0  0
    3.4095   -6.6287    2.2347 H   0  0  0  0  0  0  0  0  0  0  0  0
    2.6095   -5.3068    3.1233 H   0  0  0  0  0  0  0  0  0  0  0  0
    1.0788   -8.0360    1.0141 H   0  0  0  0  0  0  0  0  0  0  0  0
    2.4412   -8.7932    1.7938 H   0  0  0  0  0  0  0  0  0  0  0  0
    0.4710  -10.2877    1.8511 H   0  0  0  0  0  0  0  0  0  0  0  0
   -1.2694   -8.4870    1.8182 H   0  0  0  0  0  0  0  0  0  0  0  0
   -1.5598   -9.6245    3.1235 H   0  0  0  0  0  0  0  0  0  0  0  0
   -1.7808   -7.2797    3.9554 H   0  0  0  0  0  0  0  0  0  0  0  0
   -0.1707   -7.4202    5.8538 H   0  0  0  0  0  0  0  0  0  0  0  0
   -0.8790   -8.9931    5.5338 H   0  0  0  0  0  0  0  0  0  0  0  0
    1.5838   -9.1881    5.8302 H   0  0  0  0  0  0  0  0  0  0  0  0
    0.4697  -10.7691    4.2821 H   0  0  0  0  0  0  0  0  0  0  0  0
    2.0874  -10.4020    3.7172 H   0  0  0  0  0  0  0  0  0  0  0  0
    3.1186   -8.1183    4.1846 H   0  0  0  0  0  0  0  0  0  0  0  0
    2.2094   -6.9042    5.0469 H   0  0  0  0  0  0  0  0  0  0  0  0
    0.1960   -5.7645    3.9268 H   0  0  0  0  0  0  0  0  0  0  0  0
   -0.2704   -6.2374    2.2963 H   0  0  0  0  0  0  0  0  0  0  0  0
  1  9  2  0
  1  2  1  0
  1 22  1  0
  2  3  2  0
  2 23  1  0
  3  7  1  0
  3  4  1  0
  4  5  2  0
  5  6  1  0
  6  7  1  0
  7  8  2  0
  8  9  1  0
  9 10  1  0
 10 11  1  0
 12 11  1  6
 11 24  1  0
 11 25  1  0
 12 20  1  0
 12 21  1  0
 12 13  1  0
 13 14  1  0
 13 26  1  0
 13 27  1  0
 14 19  1  0
 14 15  1  0
 14 28  1  6
 15 16  1  0
 15 29  1  0
 15 30  1  0
 16 17  1  0
 16 21  1  0
 16 31  1  1
 17 18  1  0
 17 32  1  0
 17 33  1  0
 18 19  1  0
 18 20  1  0
 18 34  1  1
 19 35  1  0
 19 36  1  0
 20 37  1  0
 20 38  1  0
 21 39  1  0
 21 40  1  0
M  END
>  <i_m_ct_stereo_status>  (255) 
1

>  <s_m_source_file>  (255) 
/var/tmp/pbs.5076255.sched01/tmpgyl_4d9e/126kfdajayx.sdf

>  <i_m_source_file_index>  (255) 
9

>  <i_lp_mmshare_version>  (255) 
48012

>  <i_f3d_flags>  (255) 
0

>  <s_epik_input>  (255) 
bjFuc2MoYzEyKW5jKFtjSF1bY0hdMilPW0NIMl1DMzRbQ0gyXVtDQEhdNVtDSDJdW0NAQEhdKFtDSDJdNClbQ0gyXVtDQEhdKFtDSDJdNSlbQ0gyXTM=

>  <s_epik_cmdline>  (255) 
J2VwaWtfcHl0aG9uJywgJy1waHQnLCAnMi4wJywgJy1waCcsICc3LjAnLCAnLXRuJywgJzgnLCAnLW1hJywgJzIwMCcsICctaW1hZScsICc8aW5maWxlLm1hZT4nLCAnLW9tYWUnLCAnPG91dGZpbGUubWFlPic=

>  <r_lp_tautomer_probability>  (255) 
1

>  <r_epik_Ionization_Penalty>  (255) 
2.52428e-08

>  <r_epik_Ionization_Penalty_Charging>  (255) 
0

>  <r_epik_Ionization_Penalty_Neutral>  (255) 
2.52428e-08

>  <r_epik_State_Penalty>  (255) 
-0

>  <r_epik_Charging_Adjusted_Penalty>  (255) 
0

>  <i_epik_Tot_Q>  (255) 
0

>  <i_epik_Tot_abs_Q>  (255) 
0

>  <s_lp_Force_Field>  (255) 
OPLS3e

>  <r_lp_Energy>  (255) 
13.276

>  <b_lp_Chiralities_Consistent>  (255) 
1

>  <s_lp_Variant>  (255) 
85:0-1

>  <s_i_glide_gridfile>  (255) 
pfpi4k_grid

>  <i_i_glide_lignum>  (255) 
9

>  <i_i_glide_rotatable_bonds>  (255) 
3

>  <r_i_docking_score>  (255) 
-2.48957

>  <r_i_glide_ligand_efficiency>  (255) 
-0.118551

>  <r_i_glide_ligand_efficiency_sa>  (255) 
-0.327074

>  <r_i_glide_ligand_efficiency_ln>  (255) 
-0.615542

>  <r_i_glide_gscore>  (255) 
-2.48957

>  <r_i_glide_lipo>  (255) 
-0.170521

>  <r_i_glide_hbond>  (255) 
-0.042846

>  <r_i_glide_metal>  (255) 
-0

>  <r_i_glide_rewards>  (255) 
-1.35404

>  <r_i_glide_evdw>  (255) 
-25.7995

>  <r_i_glide_ecoul>  (255) 
-1.59795

>  <r_i_glide_erotb>  (255) 
0.607502

>  <r_i_glide_esite>  (255) 
0

>  <r_i_glide_emodel>  (255) 
-29.1174

>  <r_i_glide_energy>  (255) 
-27.3975

>  <r_i_glide_einternal>  (255) 
5.54328

>  <r_i_glide_intrahb_reward>  (255) 
-0

>  <i_i_glide_confnum>  (255) 
2

>  <i_i_glide_posenum>  (255) 
1

>  <r_i_glide_eff_state_penalty>  (255) 
0

>  <ligand_id>  (255) 
85

>  <original_smiles>  (255) 
c1cc2nnsc2nc1OCC12CC3CC(CC(C3)C1)C2

>  <smiles>  (255) 
[H]c1c(OC([H])([H])C23C([H])([H])C4([H])C([H])([H])C([H])(C([H])([H])C([H])(C4([H])[H])C2([H])[H])C3([H])[H])nc2snnc2c1[H]

$$$$
86:0:0
     RDKit          3D

 43 45  0  0  1  0  0  0  0  0999 V2000
    3.4659   -4.3926    5.1092 C   0  0  0  0  0  0  0  0  0  0  0  0
    4.1010   -3.9843    3.7909 C   0  0  0  0  0  0  0  0  0  0  0  0
    3.7960   -2.5555    3.3793 C   0  0  0  0  0  0  0  0  0  0  0  0
    4.8653   -4.7869    3.0216 C   0  0  0  0  0  0  0  0  0  0  0  0
    5.2467   -6.2381    3.2711 C   0  0  0  0  0  0  0  0  0  0  0  0
    4.8195   -7.2153    2.1461 C   0  0  2  0  0  0  0  0  0  0  0  0
    3.3184   -7.3914    2.1150 C   0  0  0  0  0  0  0  0  0  0  0  0
    2.3037   -6.7020    1.5404 C   0  0  0  0  0  0  0  0  0  0  0  0
    2.6880   -5.0662    0.4843 Br  0  0  0  0  0  0  0  0  0  0  0  0
    0.9293   -7.2403    1.7573 C   0  0  0  0  0  0  0  0  0  0  0  0
   -0.0653   -6.6509    1.3289 O   0  0  0  0  0  0  0  0  0  0  0  0
    0.9319   -8.5643    2.5632 C   0  0  1  0  0  0  0  0  0  0  0  0
   -0.4816   -9.1140    2.7657 C   0  0  0  0  0  0  0  0  0  0  0  0
    2.0148   -9.5443    2.0426 C   0  0  0  0  0  0  0  0  0  0  0  0
    3.0162   -8.6783    2.8209 C   0  0  2  0  0  0  0  0  0  0  0  0
    1.8607   -8.5014    3.8124 C   0  0  0  0  0  0  0  0  0  0  0  0
    4.2392   -9.2664    3.2138 O   0  0  0  0  0  0  0  0  0  0  0  0
    5.2781   -8.6890    2.4109 C   0  0  0  0  0  0  0  0  0  0  0  0
    5.3753   -9.4946    1.1005 C   0  0  0  0  0  0  0  0  0  0  0  0
    6.5894   -8.8630    3.2031 C   0  0  0  0  0  0  0  0  0  0  0  0
    3.6994   -3.6513    5.8748 H   0  0  0  0  0  0  0  0  0  0  0  0
    3.7964   -5.3585    5.4874 H   0  0  0  0  0  0  0  0  0  0  0  0
    2.3826   -4.4291    4.9948 H   0  0  0  0  0  0  0  0  0  0  0  0
    2.7196   -2.4229    3.2654 H   0  0  0  0  0  0  0  0  0  0  0  0
    4.2675   -2.2905    2.4317 H   0  0  0  0  0  0  0  0  0  0  0  0
    4.1445   -1.8537    4.1386 H   0  0  0  0  0  0  0  0  0  0  0  0
    5.2730   -4.3755    2.1093 H   0  0  0  0  0  0  0  0  0  0  0  0
    6.3330   -6.2305    3.3697 H   0  0  0  0  0  0  0  0  0  0  0  0
    4.8607   -6.6132    4.2191 H   0  0  0  0  0  0  0  0  0  0  0  0
    5.1835   -6.8512    1.1824 H   0  0  0  0  0  0  0  0  0  0  0  0
   -0.4522  -10.0507    3.3263 H   0  0  0  0  0  0  0  0  0  0  0  0
   -0.9801   -9.3237    1.8190 H   0  0  0  0  0  0  0  0  0  0  0  0
   -1.1058   -8.4262    3.3340 H   0  0  0  0  0  0  0  0  0  0  0  0
    1.9242  -10.5593    2.4364 H   0  0  0  0  0  0  0  0  0  0  0  0
    2.1539   -9.5567    0.9613 H   0  0  0  0  0  0  0  0  0  0  0  0
    1.8531   -7.5518    4.3473 H   0  0  0  0  0  0  0  0  0  0  0  0
    1.7434   -9.3427    4.4981 H   0  0  0  0  0  0  0  0  0  0  0  0
    6.2230   -9.1692    0.4948 H   0  0  0  0  0  0  0  0  0  0  0  0
    4.4767   -9.4038    0.4843 H   0  0  0  0  0  0  0  0  0  0  0  0
    5.5114  -10.5571    1.3146 H   0  0  0  0  0  0  0  0  0  0  0  0
    7.4306   -8.3875    2.6998 H   0  0  0  0  0  0  0  0  0  0  0  0
    6.8286   -9.9209    3.3152 H   0  0  0  0  0  0  0  0  0  0  0  0
    6.5139   -8.4552    4.2107 H   0  0  0  0  0  0  0  0  0  0  0  0
  1  2  1  0
  1 21  1  0
  1 22  1  0
  1 23  1  0
  2  3  1  0
  2  4  2  3
  3 24  1  0
  3 25  1  0
  3 26  1  0
  4  5  1  0
  4 27  1  0
  5  6  1  0
  5 28  1  0
  5 29  1  0
  6 18  1  0
  6  7  1  0
  6 30  1  6
  7 15  1  0
  7  8  2  0
  8  9  1  0
  8 10  1  0
 10 11  2  0
 10 12  1  0
 12 16  1  0
 12 13  1  1
 12 14  1  0
 13 31  1  0
 13 32  1  0
 13 33  1  0
 14 15  1  0
 14 34  1  0
 14 35  1  0
 15 16  1  0
 15 17  1  1
 16 36  1  0
 16 37  1  0
 17 18  1  0
 18 19  1  0
 18 20  1  0
 19 38  1  0
 19 39  1  0
 19 40  1  0
 20 41  1  0
 20 42  1  0
 20 43  1  0
M  END
>  <i_m_ct_stereo_status>  (256) 
1

>  <s_m_source_file>  (256) 
/var/tmp/pbs.5076255.sched01/tmpgyl_4d9e/126kfdajayx.sdf

>  <i_m_source_file_index>  (256) 
10

>  <i_lp_mmshare_version>  (256) 
48012

>  <i_f3d_flags>  (256) 
0

>  <s_epik_input>  (256) 
W0NIM11DKFtDSDNdKT1bQ0hdW0NIMl1bQ0BASF0oQyhPMSkoW0NIM10pW0NIM10pQyhbQ0BdMTIzKT1DKEJyKUMoPU8pW0NAQF0oW0NIM10pKFtDSDJdMilbQ0gyXTM=

>  <s_epik_cmdline>  (256) 
J2VwaWtfcHl0aG9uJywgJy1waHQnLCAnMi4wJywgJy1waCcsICc3LjAnLCAnLXRuJywgJzgnLCAnLW1hJywgJzIwMCcsICctaW1hZScsICc8aW5maWxlLm1hZT4nLCAnLW9tYWUnLCAnPG91dGZpbGUubWFlPic=

>  <r_lp_tautomer_probability>  (256) 
1

>  <r_epik_Ionization_Penalty>  (256) 
6.57791e-16

>  <r_epik_Ionization_Penalty_Charging>  (256) 
0

>  <r_epik_Ionization_Penalty_Neutral>  (256) 
6.57791e-16

>  <r_epik_State_Penalty>  (256) 
-0

>  <r_epik_Charging_Adjusted_Penalty>  (256) 
0

>  <i_epik_Tot_Q>  (256) 
0

>  <i_epik_Tot_abs_Q>  (256) 
0

>  <s_lp_Force_Field>  (256) 
OPLS3e

>  <r_lp_Energy>  (256) 
28.2411

>  <b_lp_Chiralities_Consistent>  (256) 
1

>  <s_lp_Variant>  (256) 
86:0-1

>  <s_i_glide_gridfile>  (256) 
pfpi4k_grid

>  <i_i_glide_lignum>  (256) 
10

>  <i_i_glide_rotatable_bonds>  (256) 
2

>  <r_i_docking_score>  (256) 
-2.45304

>  <r_i_glide_ligand_efficiency>  (256) 
-0.122652

>  <r_i_glide_ligand_efficiency_sa>  (256) 
-0.332929

>  <r_i_glide_ligand_efficiency_ln>  (256) 
-0.613916

>  <r_i_glide_gscore>  (256) 
-2.45304

>  <r_i_glide_lipo>  (256) 
-0.155446

>  <r_i_glide_hbond>  (256) 
-0.200627

>  <r_i_glide_metal>  (256) 
-0

>  <r_i_glide_rewards>  (256) 
-1.0959

>  <r_i_glide_evdw>  (256) 
-18.1137

>  <r_i_glide_ecoul>  (256) 
-2.46315

>  <r_i_glide_erotb>  (256) 
0.328795

>  <r_i_glide_esite>  (256) 
-0.0547021

>  <r_i_glide_emodel>  (256) 
-24.0863

>  <r_i_glide_energy>  (256) 
-20.5769

>  <r_i_glide_einternal>  (256) 
0.0383177

>  <r_i_glide_intrahb_reward>  (256) 
-0

>  <i_i_glide_confnum>  (256) 
5

>  <i_i_glide_posenum>  (256) 
10

>  <r_i_glide_eff_state_penalty>  (256) 
0

>  <ligand_id>  (256) 
86

>  <original_smiles>  (256) 
CC(C)=CCC1C2=C(Br)C(=O)C3(C)CC2(C3)OC1(C)C

>  <smiles>  (256) 
[H]C(=C(C([H])([H])[H])C([H])([H])[H])C([H])([H])C1([H])C2=C(Br)C(=O)C3(C([H])([H])[H])C([H])([H])C2(OC1(C([H])([H])[H])C([H])([H])[H])C3([H])[H]

$$$$
86:0:1
     RDKit          3D

 43 45  0  0  1  0  0  0  0  0999 V2000
    5.1124   -4.3349   -1.1274 C   0  0  0  0  0  0  0  0  0  0  0  0
    3.7530   -4.2701   -0.4454 C   0  0  0  0  0  0  0  0  0  0  0  0
    2.7572   -3.3897   -1.1745 C   0  0  0  0  0  0  0  0  0  0  0  0
    3.4205   -4.8981    0.7058 C   0  0  0  0  0  0  0  0  0  0  0  0
    4.2913   -5.7943    1.5728 C   0  0  0  0  0  0  0  0  0  0  0  0
    3.7794   -7.2556    1.7295 C   0  0  2  0  0  0  0  0  0  0  0  0
    2.6296   -7.3437    2.7046 C   0  0  0  0  0  0  0  0  0  0  0  0
    1.2910   -7.1697    2.6051 C   0  0  0  0  0  0  0  0  0  0  0  0
    0.4864   -6.6607    0.8811 Br  0  0  0  0  0  0  0  0  0  0  0  0
    0.5000   -7.3570    3.8532 C   0  0  0  0  0  0  0  0  0  0  0  0
   -0.7083   -7.1398    3.8778 O   0  0  0  0  0  0  0  0  0  0  0  0
    1.3777   -7.8013    5.0418 C   0  0  1  0  0  0  0  0  0  0  0  0
    0.5414   -8.0064    6.3005 C   0  0  0  0  0  0  0  0  0  0  0  0
    2.3562   -8.9304    4.6346 C   0  0  0  0  0  0  0  0  0  0  0  0
    3.2030   -7.8153    4.0062 C   0  0  2  0  0  0  0  0  0  0  0  0
    2.6852   -6.9656    5.1682 C   0  0  0  0  0  0  0  0  0  0  0  0
    4.5842   -8.0515    3.8370 O   0  0  0  0  0  0  0  0  0  0  0  0
    4.8231   -8.2002    2.4304 C   0  0  0  0  0  0  0  0  0  0  0  0
    4.5762   -9.6786    2.0568 C   0  0  0  0  0  0  0  0  0  0  0  0
    6.3115   -7.8788    2.1969 C   0  0  0  0  0  0  0  0  0  0  0  0
    4.9866   -4.5947   -2.1800 H   0  0  0  0  0  0  0  0  0  0  0  0
    5.7959   -5.0688   -0.7082 H   0  0  0  0  0  0  0  0  0  0  0  0
    5.5992   -3.3600   -1.0762 H   0  0  0  0  0  0  0  0  0  0  0  0
    3.1261   -2.3644   -1.2449 H   0  0  0  0  0  0  0  0  0  0  0  0
    1.7980   -3.3594   -0.6658 H   0  0  0  0  0  0  0  0  0  0  0  0
    2.5879   -3.7564   -2.1876 H   0  0  0  0  0  0  0  0  0  0  0  0
    2.4240   -4.7478    1.0813 H   0  0  0  0  0  0  0  0  0  0  0  0
    5.2894   -5.8022    1.1593 H   0  0  0  0  0  0  0  0  0  0  0  0
    4.3863   -5.3315    2.5569 H   0  0  0  0  0  0  0  0  0  0  0  0
    3.4930   -7.6513    0.7532 H   0  0  0  0  0  0  0  0  0  0  0  0
    1.1753   -8.3315    7.1281 H   0  0  0  0  0  0  0  0  0  0  0  0
   -0.2233   -8.7725    6.1637 H   0  0  0  0  0  0  0  0  0  0  0  0
    0.0526   -7.0845    6.6185 H   0  0  0  0  0  0  0  0  0  0  0  0
    2.8411   -9.4198    5.4829 H   0  0  0  0  0  0  0  0  0  0  0  0
    1.9464   -9.6597    3.9359 H   0  0  0  0  0  0  0  0  0  0  0  0
    2.5733   -5.9025    4.9513 H   0  0  0  0  0  0  0  0  0  0  0  0
    3.2264   -7.1327    6.1022 H   0  0  0  0  0  0  0  0  0  0  0  0
    4.8448   -9.8658    1.0150 H   0  0  0  0  0  0  0  0  0  0  0  0
    3.5342   -9.9792    2.1769 H   0  0  0  0  0  0  0  0  0  0  0  0
    5.1787  -10.3419    2.6794 H   0  0  0  0  0  0  0  0  0  0  0  0
    6.5664   -7.8963    1.1368 H   0  0  0  0  0  0  0  0  0  0  0  0
    6.9483   -8.6060    2.6984 H   0  0  0  0  0  0  0  0  0  0  0  0
    6.5834   -6.9030    2.6010 H   0  0  0  0  0  0  0  0  0  0  0  0
  1  2  1  0
  1 21  1  0
  1 22  1  0
  1 23  1  0
  2  3  1  0
  2  4  2  3
  3 24  1  0
  3 25  1  0
  3 26  1  0
  4  5  1  0
  4 27  1  0
  5  6  1  0
  5 28  1  0
  5 29  1  0
  6 18  1  0
  6  7  1  0
  6 30  1  6
  7 15  1  0
  7  8  2  0
  8  9  1  0
  8 10  1  0
 10 11  2  0
 10 12  1  0
 12 16  1  0
 12 13  1  1
 12 14  1  0
 13 31  1  0
 13 32  1  0
 13 33  1  0
 14 15  1  0
 14 34  1  0
 14 35  1  0
 15 16  1  0
 15 17  1  6
 16 36  1  0
 16 37  1  0
 17 18  1  0
 18 19  1  0
 18 20  1  0
 19 38  1  0
 19 39  1  0
 19 40  1  0
 20 41  1  0
 20 42  1  0
 20 43  1  0
M  END
>  <i_m_ct_stereo_status>  (257) 
1

>  <s_m_source_file>  (257) 
/var/tmp/pbs.5076255.sched01/tmpgyl_4d9e/126kfdajayx.sdf

>  <i_m_source_file_index>  (257) 
10

>  <i_lp_mmshare_version>  (257) 
48012

>  <i_f3d_flags>  (257) 
0

>  <s_epik_input>  (257) 
W0NIM11DKFtDSDNdKT1bQ0hdW0NIMl1bQ0BASF0oQyhPMSkoW0NIM10pW0NIM10pQyhbQ0BdMTIzKT1DKEJyKUMoPU8pW0NAQF0oW0NIM10pKFtDSDJdMilbQ0gyXTM=

>  <s_epik_cmdline>  (257) 
J2VwaWtfcHl0aG9uJywgJy1waHQnLCAnMi4wJywgJy1waCcsICc3LjAnLCAnLXRuJywgJzgnLCAnLW1hJywgJzIwMCcsICctaW1hZScsICc8aW5maWxlLm1hZT4nLCAnLW9tYWUnLCAnPG91dGZpbGUubWFlPic=

>  <r_lp_tautomer_probability>  (257) 
1

>  <r_epik_Ionization_Penalty>  (257) 
6.57791e-16

>  <r_epik_Ionization_Penalty_Charging>  (257) 
0

>  <r_epik_Ionization_Penalty_Neutral>  (257) 
6.57791e-16

>  <r_epik_State_Penalty>  (257) 
-0

>  <r_epik_Charging_Adjusted_Penalty>  (257) 
0

>  <i_epik_Tot_Q>  (257) 
0

>  <i_epik_Tot_abs_Q>  (257) 
0

>  <s_lp_Force_Field>  (257) 
OPLS3e

>  <r_lp_Energy>  (257) 
28.2411

>  <b_lp_Chiralities_Consistent>  (257) 
1

>  <s_lp_Variant>  (257) 
86:0-1

>  <s_i_glide_gridfile>  (257) 
pfpi4k_grid

>  <i_i_glide_lignum>  (257) 
10

>  <i_i_glide_rotatable_bonds>  (257) 
2

>  <r_i_docking_score>  (257) 
-2.13691

>  <r_i_glide_ligand_efficiency>  (257) 
-0.106845

>  <r_i_glide_ligand_efficiency_sa>  (257) 
-0.290023

>  <r_i_glide_ligand_efficiency_ln>  (257) 
-0.534797

>  <r_i_glide_gscore>  (257) 
-2.13691

>  <r_i_glide_lipo>  (257) 
-0.200679

>  <r_i_glide_hbond>  (257) 
0

>  <r_i_glide_metal>  (257) 
-0

>  <r_i_glide_rewards>  (257) 
-1.0959

>  <r_i_glide_evdw>  (257) 
-17.6336

>  <r_i_glide_ecoul>  (257) 
-1.74147

>  <r_i_glide_erotb>  (257) 
0.328795

>  <r_i_glide_esite>  (257) 
-0.0262183

>  <r_i_glide_emodel>  (257) 
-22.2517

>  <r_i_glide_energy>  (257) 
-19.3751

>  <r_i_glide_einternal>  (257) 
0.242027

>  <r_i_glide_intrahb_reward>  (257) 
-0

>  <i_i_glide_confnum>  (257) 
5

>  <i_i_glide_posenum>  (257) 
28

>  <r_i_glide_eff_state_penalty>  (257) 
0

>  <ligand_id>  (257) 
86

>  <original_smiles>  (257) 
CC(C)=CCC1C2=C(Br)C(=O)C3(C)CC2(C3)OC1(C)C

>  <smiles>  (257) 
[H]C(=C(C([H])([H])[H])C([H])([H])[H])C([H])([H])C1([H])C2=C(Br)C(=O)C3(C([H])([H])[H])C([H])([H])C2(OC1(C([H])([H])[H])C([H])([H])[H])C3([H])[H]

$$$$
86:0:2
     RDKit          3D

 43 45  0  0  1  0  0  0  0  0999 V2000
    0.3208    1.3256    1.9256 C   0  0  0  0  0  0  0  0  0  0  0  0
    1.7851    1.4941    2.2891 C   0  0  0  0  0  0  0  0  0  0  0  0
    2.6457    0.2916    1.9497 C   0  0  0  0  0  0  0  0  0  0  0  0
    2.3130    2.5903    2.8716 C   0  0  0  0  0  0  0  0  0  0  0  0
    1.5978    3.8671    3.2824 C   0  0  0  0  0  0  0  0  0  0  0  0
    1.6382    4.1603    4.8045 C   0  0  2  0  0  0  0  0  0  0  0  0
    0.6501    3.2881    5.5493 C   0  0  0  0  0  0  0  0  0  0  0  0
    0.6934    2.0284    6.0448 C   0  0  0  0  0  0  0  0  0  0  0  0
    2.3390    0.9415    5.8256 Br  0  0  0  0  0  0  0  0  0  0  0  0
   -0.5417    1.5537    6.7489 C   0  0  0  0  0  0  0  0  0  0  0  0
   -0.6408    0.4175    7.2123 O   0  0  0  0  0  0  0  0  0  0  0  0
   -1.6341    2.6430    6.8229 C   0  0  1  0  0  0  0  0  0  0  0  0
   -2.8766    2.1435    7.5546 C   0  0  0  0  0  0  0  0  0  0  0  0
   -1.0455    4.0034    7.2661 C   0  0  0  0  0  0  0  0  0  0  0  0
   -0.5575    4.1340    5.8143 C   0  0  2  0  0  0  0  0  0  0  0  0
   -1.8435    3.3747    5.4670 C   0  0  0  0  0  0  0  0  0  0  0  0
   -0.3208    5.4331    5.3156 O   0  0  0  0  0  0  0  0  0  0  0  0
    1.0991    5.5854    5.1746 C   0  0  0  0  0  0  0  0  0  0  0  0
    1.6602    6.0673    6.5294 C   0  0  0  0  0  0  0  0  0  0  0  0
    1.3208    6.6892    4.1244 C   0  0  0  0  0  0  0  0  0  0  0  0
    0.2392    1.0071    0.8856 H   0  0  0  0  0  0  0  0  0  0  0  0
   -0.2751    2.2304    2.0297 H   0  0  0  0  0  0  0  0  0  0  0  0
   -0.1255    0.5556    2.5534 H   0  0  0  0  0  0  0  0  0  0  0  0
    2.2845   -0.5843    2.4900 H   0  0  0  0  0  0  0  0  0  0  0  0
    3.6915    0.4459    2.2174 H   0  0  0  0  0  0  0  0  0  0  0  0
    2.5948    0.0734    0.8810 H   0  0  0  0  0  0  0  0  0  0  0  0
    3.3728    2.5951    3.0791 H   0  0  0  0  0  0  0  0  0  0  0  0
    2.1131    4.6468    2.7208 H   0  0  0  0  0  0  0  0  0  0  0  0
    0.5625    3.8977    2.9436 H   0  0  0  0  0  0  0  0  0  0  0  0
    2.6518    4.0119    5.1835 H   0  0  0  0  0  0  0  0  0  0  0  0
   -3.6355    2.9254    7.6068 H   0  0  0  0  0  0  0  0  0  0  0  0
   -2.6501    1.8440    8.5783 H   0  0  0  0  0  0  0  0  0  0  0  0
   -3.3247    1.2957    7.0386 H   0  0  0  0  0  0  0  0  0  0  0  0
   -1.7978    4.7410    7.5467 H   0  0  0  0  0  0  0  0  0  0  0  0
   -0.2625    3.9434    8.0230 H   0  0  0  0  0  0  0  0  0  0  0  0
   -1.7816    2.7368    4.5841 H   0  0  0  0  0  0  0  0  0  0  0  0
   -2.7333    4.0018    5.4393 H   0  0  0  0  0  0  0  0  0  0  0  0
    2.7247    6.3006    6.4517 H   0  0  0  0  0  0  0  0  0  0  0  0
    1.5496    5.3181    7.3176 H   0  0  0  0  0  0  0  0  0  0  0  0
    1.1461    6.9720    6.8630 H   0  0  0  0  0  0  0  0  0  0  0  0
    2.3779    6.8218    3.8966 H   0  0  0  0  0  0  0  0  0  0  0  0
    0.9404    7.6469    4.4811 H   0  0  0  0  0  0  0  0  0  0  0  0
    0.7948    6.4773    3.1932 H   0  0  0  0  0  0  0  0  0  0  0  0
  1  2  1  0
  1 21  1  0
  1 22  1  0
  1 23  1  0
  2  3  1  0
  2  4  2  3
  3 24  1  0
  3 25  1  0
  3 26  1  0
  4  5  1  0
  4 27  1  0
  5  6  1  0
  5 28  1  0
  5 29  1  0
  6 18  1  0
  6  7  1  0
  6 30  1  1
  7 15  1  0
  7  8  2  0
  8  9  1  0
  8 10  1  0
 10 11  2  0
 10 12  1  0
 12 16  1  0
 12 13  1  1
 12 14  1  0
 13 31  1  0
 13 32  1  0
 13 33  1  0
 14 15  1  0
 14 34  1  0
 14 35  1  0
 15 16  1  0
 15 17  1  6
 16 36  1  0
 16 37  1  0
 17 18  1  0
 18 19  1  0
 18 20  1  0
 19 38  1  0
 19 39  1  0
 19 40  1  0
 20 41  1  0
 20 42  1  0
 20 43  1  0
M  END
>  <i_m_ct_stereo_status>  (258) 
1

>  <s_m_source_file>  (258) 
/var/tmp/pbs.5076255.sched01/tmpgyl_4d9e/126kfdajayx.sdf

>  <i_m_source_file_index>  (258) 
10

>  <i_lp_mmshare_version>  (258) 
48012

>  <i_f3d_flags>  (258) 
0

>  <s_epik_input>  (258) 
W0NIM11DKFtDSDNdKT1bQ0hdW0NIMl1bQ0BASF0oQyhPMSkoW0NIM10pW0NIM10pQyhbQ0BdMTIzKT1DKEJyKUMoPU8pW0NAQF0oW0NIM10pKFtDSDJdMilbQ0gyXTM=

>  <s_epik_cmdline>  (258) 
J2VwaWtfcHl0aG9uJywgJy1waHQnLCAnMi4wJywgJy1waCcsICc3LjAnLCAnLXRuJywgJzgnLCAnLW1hJywgJzIwMCcsICctaW1hZScsICc8aW5maWxlLm1hZT4nLCAnLW9tYWUnLCAnPG91dGZpbGUubWFlPic=

>  <r_lp_tautomer_probability>  (258) 
1

>  <r_epik_Ionization_Penalty>  (258) 
6.57791e-16

>  <r_epik_Ionization_Penalty_Charging>  (258) 
0

>  <r_epik_Ionization_Penalty_Neutral>  (258) 
6.57791e-16

>  <r_epik_State_Penalty>  (258) 
-0

>  <r_epik_Charging_Adjusted_Penalty>  (258) 
0

>  <i_epik_Tot_Q>  (258) 
0

>  <i_epik_Tot_abs_Q>  (258) 
0

>  <s_lp_Force_Field>  (258) 
OPLS3e

>  <r_lp_Energy>  (258) 
28.2411

>  <b_lp_Chiralities_Consistent>  (258) 
1

>  <s_lp_Variant>  (258) 
86:0-1

>  <s_i_glide_gridfile>  (258) 
pfpi4k_grid

>  <i_i_glide_lignum>  (258) 
10

>  <i_i_glide_rotatable_bonds>  (258) 
2

>  <r_i_docking_score>  (258) 
-2.13343

>  <r_i_glide_ligand_efficiency>  (258) 
-0.106672

>  <r_i_glide_ligand_efficiency_sa>  (258) 
-0.289551

>  <r_i_glide_ligand_efficiency_ln>  (258) 
-0.533928

>  <r_i_glide_gscore>  (258) 
-2.13343

>  <r_i_glide_lipo>  (258) 
-0.0486252

>  <r_i_glide_hbond>  (258) 
-0.0412908

>  <r_i_glide_metal>  (258) 
-0

>  <r_i_glide_rewards>  (258) 
-1.0959

>  <r_i_glide_evdw>  (258) 
-15.8299

>  <r_i_glide_ecoul>  (258) 
-3.14544

>  <r_i_glide_erotb>  (258) 
0.328795

>  <r_i_glide_esite>  (258) 
-0.0130932

>  <r_i_glide_emodel>  (258) 
-21.8365

>  <r_i_glide_energy>  (258) 
-18.9754

>  <r_i_glide_einternal>  (258) 
0.328407

>  <r_i_glide_intrahb_reward>  (258) 
-0

>  <i_i_glide_confnum>  (258) 
5

>  <i_i_glide_posenum>  (258) 
38

>  <r_i_glide_eff_state_penalty>  (258) 
0

>  <ligand_id>  (258) 
86

>  <original_smiles>  (258) 
CC(C)=CCC1C2=C(Br)C(=O)C3(C)CC2(C3)OC1(C)C

>  <smiles>  (258) 
[H]C(=C(C([H])([H])[H])C([H])([H])[H])C([H])([H])C1([H])C2=C(Br)C(=O)C3(C([H])([H])[H])C([H])([H])C2(OC1(C([H])([H])[H])C([H])([H])[H])C3([H])[H]

$$$$
87:0:0
     RDKit          3D

 41 44  0  0  1  0  0  0  0  0999 V2000
    1.2425   -5.8576    0.0678 O   0  0  0  0  0  0  0  0  0  0  0  0
    1.9041   -6.2492    1.0288 C   0  0  0  0  0  0  0  0  0  0  0  0
    3.2012   -5.9817    1.2405 O   0  0  0  0  0  0  0  0  0  0  0  0
    3.9446   -5.2292    0.2942 C   0  0  0  0  0  0  0  0  0  0  0  0
    4.7949   -4.1759    1.0206 C   0  0  0  0  0  0  0  0  0  0  0  0
    5.7875   -3.6019    0.1354 N   0  0  0  0  0  0  0  0  0  0  0  0
    7.1413   -3.8422    0.0922 C   0  0  0  0  0  0  0  0  0  0  0  0
    7.5698   -3.0649   -0.9473 C   0  0  0  0  0  0  0  0  0  0  0  0
    6.4746   -2.3791   -1.4697 N   0  0  0  0  0  0  0  0  0  0  0  0
    5.4060   -2.7162   -0.8170 N   0  0  0  0  0  0  0  0  0  0  0  0
    1.2674   -7.1027    2.1364 C   0  0  2  0  0  0  0  0  0  0  0  0
    2.0046   -8.4674    2.2342 C   0  0  0  0  0  0  0  0  0  0  0  0
    1.3718   -9.3262    3.3455 C   0  0  1  0  0  0  0  0  0  0  0  0
    1.4905   -8.5841    4.6926 C   0  0  0  0  0  0  0  0  0  0  0  0
    0.7324   -7.2433    4.6092 C   0  0  2  0  0  0  0  0  0  0  0  0
   -0.7536   -7.5080    4.2872 C   0  0  0  0  0  0  0  0  0  0  0  0
   -0.8614   -8.2404    2.9351 C   0  0  2  0  0  0  0  0  0  0  0  0
   -0.1101   -9.5846    3.0098 C   0  0  0  0  0  0  0  0  0  0  0  0
   -0.2372   -7.3687    1.8290 C   0  0  0  0  0  0  0  0  0  0  0  0
    1.3600   -6.3692    3.5028 C   0  0  0  0  0  0  0  0  0  0  0  0
    4.5868   -5.9287   -0.2379 H   0  0  0  0  0  0  0  0  0  0  0  0
    3.3160   -4.7222   -0.4424 H   0  0  0  0  0  0  0  0  0  0  0  0
    4.1616   -3.3794    1.4234 H   0  0  0  0  0  0  0  0  0  0  0  0
    5.3190   -4.6227    1.8677 H   0  0  0  0  0  0  0  0  0  0  0  0
    7.6552   -4.5201    0.7577 H   0  0  0  0  0  0  0  0  0  0  0  0
    8.5543   -2.9534   -1.3646 H   0  0  0  0  0  0  0  0  0  0  0  0
    1.9574   -9.0004    1.2816 H   0  0  0  0  0  0  0  0  0  0  0  0
    3.0644   -8.3263    2.4549 H   0  0  0  0  0  0  0  0  0  0  0  0
    1.8999  -10.2777    3.4063 H   0  0  0  0  0  0  0  0  0  0  0  0
    1.0908   -9.1980    5.5002 H   0  0  0  0  0  0  0  0  0  0  0  0
    2.5408   -8.4066    4.9273 H   0  0  0  0  0  0  0  0  0  0  0  0
    0.8104   -6.7277    5.5663 H   0  0  0  0  0  0  0  0  0  0  0  0
   -1.2071   -8.1131    5.0729 H   0  0  0  0  0  0  0  0  0  0  0  0
   -1.3043   -6.5680    4.2564 H   0  0  0  0  0  0  0  0  0  0  0  0
   -1.9101   -8.4260    2.7030 H   0  0  0  0  0  0  0  0  0  0  0  0
   -0.1846  -10.1124    2.0621 H   0  0  0  0  0  0  0  0  0  0  0  0
   -0.5644  -10.2406    3.7506 H   0  0  0  0  0  0  0  0  0  0  0  0
   -0.7896   -6.4345    1.7470 H   0  0  0  0  0  0  0  0  0  0  0  0
   -0.3550   -7.8589    0.8648 H   0  0  0  0  0  0  0  0  0  0  0  0
    2.3983   -6.1539    3.7603 H   0  0  0  0  0  0  0  0  0  0  0  0
    0.8507   -5.4052    3.4561 H   0  0  0  0  0  0  0  0  0  0  0  0
  1  2  2  0
  2  3  1  0
 11  2  1  6
  3  4  1  0
  4  5  1  0
  4 21  1  0
  4 22  1  0
  5  6  1  0
  5 23  1  0
  5 24  1  0
  6 10  1  0
  6  7  1  0
  7  8  2  0
  7 25  1  0
  8  9  1  0
  8 26  1  0
  9 10  2  0
 11 19  1  0
 11 20  1  0
 11 12  1  0
 12 13  1  0
 12 27  1  0
 12 28  1  0
 13 18  1  0
 13 14  1  0
 13 29  1  1
 14 15  1  0
 14 30  1  0
 14 31  1  0
 15 16  1  0
 15 20  1  0
 15 32  1  1
 16 17  1  0
 16 33  1  0
 16 34  1  0
 17 18  1  0
 17 19  1  0
 17 35  1  6
 18 36  1  0
 18 37  1  0
 19 38  1  0
 19 39  1  0
 20 40  1  0
 20 41  1  0
M  END
>  <i_m_ct_stereo_status>  (259) 
1

>  <s_m_source_file>  (259) 
/var/tmp/pbs.5076255.sched01/tmpgyl_4d9e/126kfdajayx.sdf

>  <i_m_source_file_index>  (259) 
11

>  <i_lp_mmshare_version>  (259) 
48012

>  <i_f3d_flags>  (259) 
0

>  <s_epik_input>  (259) 
W0NIMl0xW0NASF0oW0NIMl0yKVtDSDJdW0NASF0oW0NIMl0zKVtDSDJdW0NAQEhdMVtDSDJdQzIzQyg9TylPW0NIMl1bQ0gyXW40W2NIXVtjSF1ubjQ=

>  <s_epik_cmdline>  (259) 
J2VwaWtfcHl0aG9uJywgJy1waHQnLCAnMi4wJywgJy1waCcsICc3LjAnLCAnLXRuJywgJzgnLCAnLW1hJywgJzIwMCcsICctaW1hZScsICc8aW5maWxlLm1hZT4nLCAnLW9tYWUnLCAnPG91dGZpbGUubWFlPic=

>  <r_lp_tautomer_probability>  (259) 
1

>  <r_epik_Ionization_Penalty>  (259) 
1.25609e-06

>  <r_epik_Ionization_Penalty_Charging>  (259) 
0

>  <r_epik_Ionization_Penalty_Neutral>  (259) 
1.25609e-06

>  <r_epik_State_Penalty>  (259) 
-0

>  <r_epik_Charging_Adjusted_Penalty>  (259) 
0

>  <i_epik_Tot_Q>  (259) 
0

>  <i_epik_Tot_abs_Q>  (259) 
0

>  <s_epik_Chemistry_Notes>  (259) 
This compound has an ester and may undergo hydrolysis at high or low pH.

>  <s_lp_Force_Field>  (259) 
OPLS3e

>  <r_lp_Energy>  (259) 
4.65593

>  <b_lp_Chiralities_Consistent>  (259) 
1

>  <s_lp_Variant>  (259) 
87:0-1

>  <s_i_glide_gridfile>  (259) 
pfpi4k_grid

>  <i_i_glide_lignum>  (259) 
11

>  <i_i_glide_rotatable_bonds>  (259) 
5

>  <r_i_docking_score>  (259) 
-3.30336

>  <r_i_glide_ligand_efficiency>  (259) 
-0.165168

>  <r_i_glide_ligand_efficiency_sa>  (259) 
-0.448335

>  <r_i_glide_ligand_efficiency_ln>  (259) 
-0.826721

>  <r_i_glide_gscore>  (259) 
-3.30336

>  <r_i_glide_lipo>  (259) 
-0.177589

>  <r_i_glide_hbond>  (259) 
-0.318801

>  <r_i_glide_metal>  (259) 
-0

>  <r_i_glide_rewards>  (259) 
-1.62043

>  <r_i_glide_evdw>  (259) 
-23.0704

>  <r_i_glide_ecoul>  (259) 
-4.27653

>  <r_i_glide_erotb>  (259) 
0.711175

>  <r_i_glide_esite>  (259) 
-0.102715

>  <r_i_glide_emodel>  (259) 
-32.5633

>  <r_i_glide_energy>  (259) 
-27.3469

>  <r_i_glide_einternal>  (259) 
2.17226

>  <r_i_glide_intrahb_reward>  (259) 
-0

>  <i_i_glide_confnum>  (259) 
1

>  <i_i_glide_posenum>  (259) 
1

>  <r_i_glide_eff_state_penalty>  (259) 
0

>  <ligand_id>  (259) 
87

>  <original_smiles>  (259) 
O=C(OCCn1ccnn1)C12CC3CC(CC(C3)C1)C2

>  <smiles>  (259) 
[H]c1nnn(C([H])([H])C([H])([H])OC(=O)C23C([H])([H])C4([H])C([H])([H])C([H])(C([H])([H])C([H])(C4([H])[H])C2([H])[H])C3([H])[H])c1[H]

$$$$
87:0:1
     RDKit          3D

 41 44  0  0  1  0  0  0  0  0999 V2000
    1.0117   -6.0082    0.8597 O   0  0  0  0  0  0  0  0  0  0  0  0
    1.8436   -6.5154    1.6218 C   0  0  0  0  0  0  0  0  0  0  0  0
    3.0985   -6.0700    1.8195 O   0  0  0  0  0  0  0  0  0  0  0  0
    3.5168   -4.8184    1.2962 C   0  0  0  0  0  0  0  0  0  0  0  0
    3.7441   -4.8776   -0.2204 C   0  0  0  0  0  0  0  0  0  0  0  0
    4.3168   -3.6505   -0.7172 N   0  0  0  0  0  0  0  0  0  0  0  0
    3.6750   -2.5746   -1.2878 C   0  0  0  0  0  0  0  0  0  0  0  0
    4.6847   -1.6937   -1.5282 C   0  0  0  0  0  0  0  0  0  0  0  0
    5.8876   -2.2709   -1.1219 N   0  0  0  0  0  0  0  0  0  0  0  0
    5.6527   -3.4491   -0.6334 N   0  0  0  0  0  0  0  0  0  0  0  0
    1.5252   -7.7549    2.4735 C   0  0  2  0  0  0  0  0  0  0  0  0
    0.0049   -8.0806    2.4166 C   0  0  0  0  0  0  0  0  0  0  0  0
   -0.3068   -9.3171    3.2832 C   0  0  1  0  0  0  0  0  0  0  0  0
    0.4893  -10.5264    2.7550 C   0  0  0  0  0  0  0  0  0  0  0  0
    1.9990  -10.2221    2.8332 C   0  0  2  0  0  0  0  0  0  0  0  0
    2.3890   -9.9463    4.2994 C   0  0  0  0  0  0  0  0  0  0  0  0
    1.5927   -8.7327    4.8209 C   0  0  2  0  0  0  0  0  0  0  0  0
    0.0823   -9.0229    4.7451 C   0  0  0  0  0  0  0  0  0  0  0  0
    1.9169   -7.4962    3.9603 C   0  0  0  0  0  0  0  0  0  0  0  0
    2.3253   -8.9868    1.9621 C   0  0  0  0  0  0  0  0  0  0  0  0
    2.7829   -4.0462    1.5491 H   0  0  0  0  0  0  0  0  0  0  0  0
    4.4512   -4.5549    1.7944 H   0  0  0  0  0  0  0  0  0  0  0  0
    4.3914   -5.7138   -0.4944 H   0  0  0  0  0  0  0  0  0  0  0  0
    2.7834   -5.0243   -0.7168 H   0  0  0  0  0  0  0  0  0  0  0  0
    2.6129   -2.5175   -1.4560 H   0  0  0  0  0  0  0  0  0  0  0  0
    4.6424   -0.7093   -1.9584 H   0  0  0  0  0  0  0  0  0  0  0  0
   -0.5839   -7.2358    2.7748 H   0  0  0  0  0  0  0  0  0  0  0  0
   -0.3162   -8.2555    1.3880 H   0  0  0  0  0  0  0  0  0  0  0  0
   -1.3727   -9.5377    3.2347 H   0  0  0  0  0  0  0  0  0  0  0  0
    0.2555  -11.4212    3.3326 H   0  0  0  0  0  0  0  0  0  0  0  0
    0.2005  -10.7332    1.7254 H   0  0  0  0  0  0  0  0  0  0  0  0
    2.5635  -11.0839    2.4746 H   0  0  0  0  0  0  0  0  0  0  0  0
    2.1864  -10.8234    4.9162 H   0  0  0  0  0  0  0  0  0  0  0  0
    3.4608   -9.7582    4.3717 H   0  0  0  0  0  0  0  0  0  0  0  0
    1.8770   -8.5341    5.8541 H   0  0  0  0  0  0  0  0  0  0  0  0
   -0.4785   -8.1650    5.1162 H   0  0  0  0  0  0  0  0  0  0  0  0
   -0.1765   -9.8668    5.3841 H   0  0  0  0  0  0  0  0  0  0  0  0
    2.9819   -7.2806    4.0623 H   0  0  0  0  0  0  0  0  0  0  0  0
    1.3897   -6.6234    4.3487 H   0  0  0  0  0  0  0  0  0  0  0  0
    2.0866   -9.1982    0.9185 H   0  0  0  0  0  0  0  0  0  0  0  0
    3.3996   -8.7978    1.9938 H   0  0  0  0  0  0  0  0  0  0  0  0
  1  2  2  0
  2  3  1  0
 11  2  1  6
  3  4  1  0
  4  5  1  0
  4 21  1  0
  4 22  1  0
  5  6  1  0
  5 23  1  0
  5 24  1  0
  6 10  1  0
  6  7  1  0
  7  8  2  0
  7 25  1  0
  8  9  1  0
  8 26  1  0
  9 10  2  0
 11 19  1  0
 11 20  1  0
 11 12  1  0
 12 13  1  0
 12 27  1  0
 12 28  1  0
 13 18  1  0
 13 14  1  0
 13 29  1  1
 14 15  1  0
 14 30  1  0
 14 31  1  0
 15 16  1  0
 15 20  1  0
 15 32  1  6
 16 17  1  0
 16 33  1  0
 16 34  1  0
 17 18  1  0
 17 19  1  0
 17 35  1  1
 18 36  1  0
 18 37  1  0
 19 38  1  0
 19 39  1  0
 20 40  1  0
 20 41  1  0
M  END
>  <i_m_ct_stereo_status>  (260) 
1

>  <s_m_source_file>  (260) 
/var/tmp/pbs.5076255.sched01/tmpgyl_4d9e/126kfdajayx.sdf

>  <i_m_source_file_index>  (260) 
11

>  <i_lp_mmshare_version>  (260) 
48012

>  <i_f3d_flags>  (260) 
0

>  <s_epik_input>  (260) 
W0NIMl0xW0NASF0oW0NIMl0yKVtDSDJdW0NASF0oW0NIMl0zKVtDSDJdW0NAQEhdMVtDSDJdQzIzQyg9TylPW0NIMl1bQ0gyXW40W2NIXVtjSF1ubjQ=

>  <s_epik_cmdline>  (260) 
J2VwaWtfcHl0aG9uJywgJy1waHQnLCAnMi4wJywgJy1waCcsICc3LjAnLCAnLXRuJywgJzgnLCAnLW1hJywgJzIwMCcsICctaW1hZScsICc8aW5maWxlLm1hZT4nLCAnLW9tYWUnLCAnPG91dGZpbGUubWFlPic=

>  <r_lp_tautomer_probability>  (260) 
1

>  <r_epik_Ionization_Penalty>  (260) 
1.25609e-06

>  <r_epik_Ionization_Penalty_Charging>  (260) 
0

>  <r_epik_Ionization_Penalty_Neutral>  (260) 
1.25609e-06

>  <r_epik_State_Penalty>  (260) 
-0

>  <r_epik_Charging_Adjusted_Penalty>  (260) 
0

>  <i_epik_Tot_Q>  (260) 
0

>  <i_epik_Tot_abs_Q>  (260) 
0

>  <s_epik_Chemistry_Notes>  (260) 
This compound has an ester and may undergo hydrolysis at high or low pH.

>  <s_lp_Force_Field>  (260) 
OPLS3e

>  <r_lp_Energy>  (260) 
4.65593

>  <b_lp_Chiralities_Consistent>  (260) 
1

>  <s_lp_Variant>  (260) 
87:0-1

>  <s_i_glide_gridfile>  (260) 
pfpi4k_grid

>  <i_i_glide_lignum>  (260) 
11

>  <i_i_glide_rotatable_bonds>  (260) 
5

>  <r_i_docking_score>  (260) 
-3.28641

>  <r_i_glide_ligand_efficiency>  (260) 
-0.16432

>  <r_i_glide_ligand_efficiency_sa>  (260) 
-0.446034

>  <r_i_glide_ligand_efficiency_ln>  (260) 
-0.822479

>  <r_i_glide_gscore>  (260) 
-3.28641

>  <r_i_glide_lipo>  (260) 
-0.213752

>  <r_i_glide_hbond>  (260) 
-0.16

>  <r_i_glide_metal>  (260) 
-0

>  <r_i_glide_rewards>  (260) 
-1.53877

>  <r_i_glide_evdw>  (260) 
-21.6621

>  <r_i_glide_ecoul>  (260) 
-6.22237

>  <r_i_glide_erotb>  (260) 
0.711175

>  <r_i_glide_esite>  (260) 
-0.0685983

>  <r_i_glide_emodel>  (260) 
-33.0536

>  <r_i_glide_energy>  (260) 
-27.8845

>  <r_i_glide_einternal>  (260) 
1.91049

>  <r_i_glide_intrahb_reward>  (260) 
-0

>  <i_i_glide_confnum>  (260) 
1

>  <i_i_glide_posenum>  (260) 
15

>  <r_i_glide_eff_state_penalty>  (260) 
0

>  <ligand_id>  (260) 
87

>  <original_smiles>  (260) 
O=C(OCCn1ccnn1)C12CC3CC(CC(C3)C1)C2

>  <smiles>  (260) 
[H]c1nnn(C([H])([H])C([H])([H])OC(=O)C23C([H])([H])C4([H])C([H])([H])C([H])(C([H])([H])C([H])(C4([H])[H])C2([H])[H])C3([H])[H])c1[H]

$$$$
87:0:2
     RDKit          3D

 41 44  0  0  1  0  0  0  0  0999 V2000
    1.0461   -5.9659    0.0227 O   0  0  0  0  0  0  0  0  0  0  0  0
    1.7418   -6.2907    0.9895 C   0  0  0  0  0  0  0  0  0  0  0  0
    3.0269   -5.9664    1.1750 O   0  0  0  0  0  0  0  0  0  0  0  0
    3.7787   -5.3512    0.1428 C   0  0  0  0  0  0  0  0  0  0  0  0
    3.3154   -3.9115   -0.1990 C   0  0  0  0  0  0  0  0  0  0  0  0
    4.0297   -3.3226   -1.3098 N   0  0  0  0  0  0  0  0  0  0  0  0
    3.5819   -2.2751   -2.0850 C   0  0  0  0  0  0  0  0  0  0  0  0
    4.5734   -2.1090   -2.9960 C   0  0  0  0  0  0  0  0  0  0  0  0
    5.5777   -3.0434   -2.7320 N   0  0  0  0  0  0  0  0  0  0  0  0
    5.2414   -3.7592   -1.7196 N   0  0  0  0  0  0  0  0  0  0  0  0
    1.1791   -7.1581    2.1181 C   0  0  2  0  0  0  0  0  0  0  0  0
   -0.3343   -7.4086    1.8802 C   0  0  0  0  0  0  0  0  0  0  0  0
   -0.9067   -8.3071    2.9805 C   0  0  1  0  0  0  0  0  0  0  0  0
   -0.1599   -9.6530    2.9710 C   0  0  0  0  0  0  0  0  0  0  0  0
    1.3402   -9.4197    3.2347 C   0  0  2  0  0  0  0  0  0  0  0  0
    1.5203   -8.7305    4.6022 C   0  0  0  0  0  0  0  0  0  0  0  0
    0.7782   -7.3758    4.6043 C   0  0  2  0  0  0  0  0  0  0  0  0
   -0.7255   -7.6078    4.3401 C   0  0  0  0  0  0  0  0  0  0  0  0
    1.3616   -6.4685    3.5046 C   0  0  0  0  0  0  0  0  0  0  0  0
    1.9248   -8.5237    2.1298 C   0  0  0  0  0  0  0  0  0  0  0  0
    4.7974   -5.3160    0.5219 H   0  0  0  0  0  0  0  0  0  0  0  0
    3.8132   -6.0237   -0.7167 H   0  0  0  0  0  0  0  0  0  0  0  0
    2.2765   -3.8551   -0.5264 H   0  0  0  0  0  0  0  0  0  0  0  0
    3.4205   -3.2591    0.6726 H   0  0  0  0  0  0  0  0  0  0  0  0
    2.6339   -1.7749   -1.9401 H   0  0  0  0  0  0  0  0  0  0  0  0
    4.6215   -1.3918   -3.7907 H   0  0  0  0  0  0  0  0  0  0  0  0
   -0.8909   -6.4743    1.8528 H   0  0  0  0  0  0  0  0  0  0  0  0
   -0.5057   -7.8683    0.9033 H   0  0  0  0  0  0  0  0  0  0  0  0
   -1.9675   -8.4800    2.7920 H   0  0  0  0  0  0  0  0  0  0  0  0
   -0.5698  -10.3155    3.7264 H   0  0  0  0  0  0  0  0  0  0  0  0
   -0.2977  -10.1559    2.0162 H   0  0  0  0  0  0  0  0  0  0  0  0
    1.8594  -10.3792    3.2344 H   0  0  0  0  0  0  0  0  0  0  0  0
    1.1348   -9.3761    5.3906 H   0  0  0  0  0  0  0  0  0  0  0  0
    2.5812   -8.5809    4.8061 H   0  0  0  0  0  0  0  0  0  0  0  0
    0.9116   -6.8941    5.5733 H   0  0  0  0  0  0  0  0  0  0  0  0
   -1.2524   -6.6529    4.3462 H   0  0  0  0  0  0  0  0  0  0  0  0
   -1.1564   -8.2282    5.1242 H   0  0  0  0  0  0  0  0  0  0  0  0
    2.4146   -6.2817    3.7263 H   0  0  0  0  0  0  0  0  0  0  0  0
    0.8697   -5.4940    3.5213 H   0  0  0  0  0  0  0  0  0  0  0  0
    1.8292   -9.0158    1.1601 H   0  0  0  0  0  0  0  0  0  0  0  0
    2.9964   -8.3950    2.3001 H   0  0  0  0  0  0  0  0  0  0  0  0
  1  2  2  0
  2  3  1  0
 11  2  1  6
  3  4  1  0
  4  5  1  0
  4 21  1  0
  4 22  1  0
  5  6  1  0
  5 23  1  0
  5 24  1  0
  6 10  1  0
  6  7  1  0
  7  8  2  0
  7 25  1  0
  8  9  1  0
  8 26  1  0
  9 10  2  0
 11 19  1  0
 11 20  1  0
 11 12  1  0
 12 13  1  0
 12 27  1  0
 12 28  1  0
 13 18  1  0
 13 14  1  0
 13 29  1  6
 14 15  1  0
 14 30  1  0
 14 31  1  0
 15 16  1  0
 15 20  1  0
 15 32  1  1
 16 17  1  0
 16 33  1  0
 16 34  1  0
 17 18  1  0
 17 19  1  0
 17 35  1  1
 18 36  1  0
 18 37  1  0
 19 38  1  0
 19 39  1  0
 20 40  1  0
 20 41  1  0
M  END
>  <i_m_ct_stereo_status>  (261) 
1

>  <s_m_source_file>  (261) 
/var/tmp/pbs.5076255.sched01/tmpgyl_4d9e/126kfdajayx.sdf

>  <i_m_source_file_index>  (261) 
11

>  <i_lp_mmshare_version>  (261) 
48012

>  <i_f3d_flags>  (261) 
0

>  <s_epik_input>  (261) 
W0NIMl0xW0NASF0oW0NIMl0yKVtDSDJdW0NASF0oW0NIMl0zKVtDSDJdW0NAQEhdMVtDSDJdQzIzQyg9TylPW0NIMl1bQ0gyXW40W2NIXVtjSF1ubjQ=

>  <s_epik_cmdline>  (261) 
J2VwaWtfcHl0aG9uJywgJy1waHQnLCAnMi4wJywgJy1waCcsICc3LjAnLCAnLXRuJywgJzgnLCAnLW1hJywgJzIwMCcsICctaW1hZScsICc8aW5maWxlLm1hZT4nLCAnLW9tYWUnLCAnPG91dGZpbGUubWFlPic=

>  <r_lp_tautomer_probability>  (261) 
1

>  <r_epik_Ionization_Penalty>  (261) 
1.25609e-06

>  <r_epik_Ionization_Penalty_Charging>  (261) 
0

>  <r_epik_Ionization_Penalty_Neutral>  (261) 
1.25609e-06

>  <r_epik_State_Penalty>  (261) 
-0

>  <r_epik_Charging_Adjusted_Penalty>  (261) 
0

>  <i_epik_Tot_Q>  (261) 
0

>  <i_epik_Tot_abs_Q>  (261) 
0

>  <s_epik_Chemistry_Notes>  (261) 
This compound has an ester and may undergo hydrolysis at high or low pH.

>  <s_lp_Force_Field>  (261) 
OPLS3e

>  <r_lp_Energy>  (261) 
4.65593

>  <b_lp_Chiralities_Consistent>  (261) 
1

>  <s_lp_Variant>  (261) 
87:0-1

>  <s_i_glide_gridfile>  (261) 
pfpi4k_grid

>  <i_i_glide_lignum>  (261) 
11

>  <i_i_glide_rotatable_bonds>  (261) 
5

>  <r_i_docking_score>  (261) 
-3.22192

>  <r_i_glide_ligand_efficiency>  (261) 
-0.161096

>  <r_i_glide_ligand_efficiency_sa>  (261) 
-0.437282

>  <r_i_glide_ligand_efficiency_ln>  (261) 
-0.806341

>  <r_i_glide_gscore>  (261) 
-3.22192

>  <r_i_glide_lipo>  (261) 
-0.0791277

>  <r_i_glide_hbond>  (261) 
-0.434366

>  <r_i_glide_metal>  (261) 
-0

>  <r_i_glide_rewards>  (261) 
-1.53173

>  <r_i_glide_evdw>  (261) 
-24.1219

>  <r_i_glide_ecoul>  (261) 
-4.15429

>  <r_i_glide_erotb>  (261) 
0.711175

>  <r_i_glide_esite>  (261) 
-0.0586356

>  <r_i_glide_emodel>  (261) 
-31.5925

>  <r_i_glide_energy>  (261) 
-28.2762

>  <r_i_glide_einternal>  (261) 
4.82483

>  <r_i_glide_intrahb_reward>  (261) 
-0

>  <i_i_glide_confnum>  (261) 
1

>  <i_i_glide_posenum>  (261) 
17

>  <r_i_glide_eff_state_penalty>  (261) 
0

>  <ligand_id>  (261) 
87

>  <original_smiles>  (261) 
O=C(OCCn1ccnn1)C12CC3CC(CC(C3)C1)C2

>  <smiles>  (261) 
[H]c1nnn(C([H])([H])C([H])([H])OC(=O)C23C([H])([H])C4([H])C([H])([H])C([H])(C([H])([H])C([H])(C4([H])[H])C2([H])[H])C3([H])[H])c1[H]

$$$$
88:0:0
     RDKit          3D

 44 47  0  0  1  0  0  0  0  0999 V2000
    3.0729   -3.7508    2.9522 C   0  0  0  0  0  0  0  0  0  0  0  0
    3.7714   -2.6625    2.0907 C   0  0  2  0  0  0  0  0  0  0  0  0
    2.7293   -1.6390    1.6314 C   0  0  0  0  0  0  0  0  0  0  0  0
    3.3778   -0.5371    0.8008 C   0  0  0  0  0  0  0  0  0  0  0  0
    4.1536   -1.0462   -0.4346 C   0  0  2  0  0  0  0  0  0  0  0  0
    3.3135   -1.5105   -1.4907 O   0  0  0  0  0  0  0  0  0  0  0  0
    3.9915   -1.7726   -2.6884 C   0  0  0  0  0  0  0  0  0  0  0  0
    3.3859   -3.0288   -3.3407 C   0  0  0  0  0  0  0  0  0  0  0  0
    3.8307   -0.5864   -3.6574 C   0  0  0  0  0  0  0  0  0  0  0  0
    5.3638   -1.9847   -2.4886 O   0  0  0  0  0  0  0  0  0  0  0  0
    5.6511   -2.8120   -1.4001 C   0  0  1  0  0  0  0  0  0  0  0  0
    7.0173   -3.0726   -1.3517 O   0  0  0  0  0  0  0  0  0  0  0  0
    7.4777   -3.4692   -0.0779 C   0  0  2  0  0  0  0  0  0  0  0  0
    8.9357   -3.8323   -0.2720 C   0  0  0  0  0  0  0  0  0  0  0  0
    6.6940   -4.6786    0.4793 C   0  0  0  0  0  0  0  0  0  0  0  0
    5.5720   -4.2685    1.4245 C   0  0  0  0  0  0  0  0  0  0  0  0
    4.5543   -3.2416    0.8788 C   0  0  2  0  0  0  0  0  0  0  0  0
    5.1833   -2.1414   -0.0665 C   0  0  2  0  0  0  0  0  0  0  0  0
    6.2992   -1.4467    0.4891 O   0  0  0  0  0  0  0  0  0  0  0  0
    7.4045   -2.4098    0.8735 O   0  0  0  0  0  0  0  0  0  0  0  0
    2.4158   -4.3667    2.3399 H   0  0  0  0  0  0  0  0  0  0  0  0
    2.4595   -3.3233    3.7479 H   0  0  0  0  0  0  0  0  0  0  0  0
    3.7770   -4.4222    3.4443 H   0  0  0  0  0  0  0  0  0  0  0  0
    4.4804   -2.1365    2.7319 H   0  0  0  0  0  0  0  0  0  0  0  0
    1.9396   -2.1220    1.0533 H   0  0  0  0  0  0  0  0  0  0  0  0
    2.2518   -1.1854    2.5012 H   0  0  0  0  0  0  0  0  0  0  0  0
    2.6001    0.1641    0.5055 H   0  0  0  0  0  0  0  0  0  0  0  0
    4.0786    0.0103    1.4365 H   0  0  0  0  0  0  0  0  0  0  0  0
    4.6875   -0.1827   -0.8407 H   0  0  0  0  0  0  0  0  0  0  0  0
    3.2947   -3.8357   -2.6278 H   0  0  0  0  0  0  0  0  0  0  0  0
    4.0207   -3.3379   -4.1757 H   0  0  0  0  0  0  0  0  0  0  0  0
    2.3941   -2.7977   -3.7196 H   0  0  0  0  0  0  0  0  0  0  0  0
    4.2379    0.3453   -3.2640 H   0  0  0  0  0  0  0  0  0  0  0  0
    2.7729   -0.4350   -3.8746 H   0  0  0  0  0  0  0  0  0  0  0  0
    4.3341   -0.8248   -4.5981 H   0  0  0  0  0  0  0  0  0  0  0  0
    5.1636   -3.7701   -1.5540 H   0  0  0  0  0  0  0  0  0  0  0  0
    9.4468   -2.9742   -0.6886 H   0  0  0  0  0  0  0  0  0  0  0  0
    9.0354   -4.6682   -0.9653 H   0  0  0  0  0  0  0  0  0  0  0  0
    9.3974   -4.1038    0.6736 H   0  0  0  0  0  0  0  0  0  0  0  0
    6.2998   -5.3064   -0.3108 H   0  0  0  0  0  0  0  0  0  0  0  0
    7.3614   -5.3180    1.0621 H   0  0  0  0  0  0  0  0  0  0  0  0
    5.0694   -5.1960    1.7060 H   0  0  0  0  0  0  0  0  0  0  0  0
    6.0367   -3.8810    2.3361 H   0  0  0  0  0  0  0  0  0  0  0  0
    3.8233   -3.7859    0.2793 H   0  0  0  0  0  0  0  0  0  0  0  0
  1  2  1  0
  1 21  1  0
  1 22  1  0
  1 23  1  0
  2 17  1  0
  2  3  1  0
  2 24  1  1
  3  4  1  0
  3 25  1  0
  3 26  1  0
  4  5  1  0
  4 27  1  0
  4 28  1  0
  5 18  1  0
  5  6  1  0
  5 29  1  6
  6  7  1  0
  7  8  1  0
  7  9  1  0
  7 10  1  0
  8 30  1  0
  8 31  1  0
  8 32  1  0
  9 33  1  0
  9 34  1  0
  9 35  1  0
 10 11  1  0
 11 18  1  0
 11 12  1  0
 11 36  1  6
 12 13  1  0
 13 20  1  0
 13 14  1  6
 13 15  1  0
 14 37  1  0
 14 38  1  0
 14 39  1  0
 15 16  1  0
 15 40  1  0
 15 41  1  0
 16 17  1  0
 16 42  1  0
 16 43  1  0
 17 18  1  0
 17 44  1  6
 18 19  1  1
 19 20  1  0
M  END
>  <i_m_ct_stereo_status>  (262) 
1

>  <s_m_source_file>  (262) 
/var/tmp/pbs.5076255.sched01/tmpgyl_4d9e/126kfdajayx.sdf

>  <i_m_source_file_index>  (262) 
12

>  <i_lp_mmshare_version>  (262) 
48012

>  <i_f3d_flags>  (262) 
0

>  <s_epik_input>  (262) 
W0NAQF0xMjNbQ0BASF00W0NIMl1bQ0gyXVtDQEBIXShbQ0gzXSlbQ0BASF0yW0NIMl1bQ0gyXVtDQF0oW0NIM10pKE9PMylPW0NAQEhdMU9DKE80KShbQ0gzXSlbQ0gzXQ==

>  <s_epik_cmdline>  (262) 
J2VwaWtfcHl0aG9uJywgJy1waHQnLCAnMi4wJywgJy1waCcsICc3LjAnLCAnLXRuJywgJzgnLCAnLW1hJywgJzIwMCcsICctaW1hZScsICc8aW5maWxlLm1hZT4nLCAnLW9tYWUnLCAnPG91dGZpbGUubWFlPic=

>  <r_lp_tautomer_probability>  (262) 
1

>  <r_epik_Ionization_Penalty>  (262) 
4.59138e-14

>  <r_epik_Ionization_Penalty_Charging>  (262) 
0

>  <r_epik_Ionization_Penalty_Neutral>  (262) 
4.59138e-14

>  <r_epik_State_Penalty>  (262) 
-0

>  <r_epik_Charging_Adjusted_Penalty>  (262) 
0

>  <i_epik_Tot_Q>  (262) 
0

>  <i_epik_Tot_abs_Q>  (262) 
0

>  <s_epik_Chemistry_Notes>  (262) 
This compound contains an acetal/aminal-like group ( X-CH(R)-Y where X, Y are N, S, or O) that may be acid/base labile, releasing an aldehyde.

>  <s_lp_Force_Field>  (262) 
OPLS3e

>  <r_lp_Energy>  (262) 
33.039

>  <b_lp_Chiralities_Consistent>  (262) 
1

>  <s_lp_Variant>  (262) 
88:0-1

>  <s_i_glide_gridfile>  (262) 
pfpi4k_grid

>  <i_i_glide_lignum>  (262) 
12

>  <i_i_glide_rotatable_bonds>  (262) 
0

>  <r_i_docking_score>  (262) 
-3.72271

>  <r_i_glide_ligand_efficiency>  (262) 
-0.186136

>  <r_i_glide_ligand_efficiency_sa>  (262) 
-0.50525

>  <r_i_glide_ligand_efficiency_ln>  (262) 
-0.931672

>  <r_i_glide_gscore>  (262) 
-3.72271

>  <r_i_glide_lipo>  (262) 
-0.584776

>  <r_i_glide_hbond>  (262) 
0

>  <r_i_glide_metal>  (262) 
-0

>  <r_i_glide_rewards>  (262) 
-1.70936

>  <r_i_glide_evdw>  (262) 
-26.8105

>  <r_i_glide_ecoul>  (262) 
-0.519307

>  <r_i_glide_erotb>  (262) 
0

>  <r_i_glide_esite>  (262) 
-0.010153

>  <r_i_glide_emodel>  (262) 
-32.793

>  <r_i_glide_energy>  (262) 
-27.3298

>  <r_i_glide_einternal>  (262) 
0

>  <r_i_glide_intrahb_reward>  (262) 
-0

>  <i_i_glide_confnum>  (262) 
1

>  <i_i_glide_posenum>  (262) 
1

>  <r_i_glide_eff_state_penalty>  (262) 
0

>  <ligand_id>  (262) 
88

>  <original_smiles>  (262) 
CC1CCC2OC(C)(C)OC3OC4(C)CCC1C23OO4

>  <smiles>  (262) 
[H]C([H])([H])C1(C([H])([H])[H])OC2([H])OC3(C([H])([H])[H])OOC24C([H])(O1)C([H])([H])C([H])([H])C([H])(C([H])([H])[H])C4([H])C([H])([H])C3([H])[H]

$$$$
88:0:1
     RDKit          3D

 44 47  0  0  1  0  0  0  0  0999 V2000
    3.8782   -2.9035    3.6872 C   0  0  0  0  0  0  0  0  0  0  0  0
    4.4367   -2.0314    2.5213 C   0  0  2  0  0  0  0  0  0  0  0  0
    3.3933   -0.9807    2.1260 C   0  0  0  0  0  0  0  0  0  0  0  0
    3.9292   -0.0685    1.0218 C   0  0  0  0  0  0  0  0  0  0  0  0
    4.4345   -0.7927   -0.2390 C   0  0  2  0  0  0  0  0  0  0  0  0
    3.3569   -1.3234   -0.9998 O   0  0  0  0  0  0  0  0  0  0  0  0
    3.7301   -1.7999   -2.2620 C   0  0  0  0  0  0  0  0  0  0  0  0
    2.8848   -3.0331   -2.5609 C   0  0  0  0  0  0  0  0  0  0  0  0
    3.4908   -0.7179   -3.3123 C   0  0  0  0  0  0  0  0  0  0  0  0
    5.0869   -2.1468   -2.3259 O   0  0  0  0  0  0  0  0  0  0  0  0
    5.5441   -2.8404   -1.2153 C   0  0  1  0  0  0  0  0  0  0  0  0
    6.8736   -3.2407   -1.4114 O   0  0  0  0  0  0  0  0  0  0  0  0
    7.5310   -3.4997   -0.1956 C   0  0  2  0  0  0  0  0  0  0  0  0
    8.9236   -4.0120   -0.5291 C   0  0  0  0  0  0  0  0  0  0  0  0
    6.7760   -4.5377    0.6453 C   0  0  0  0  0  0  0  0  0  0  0  0
    5.9046   -3.8969    1.7180 C   0  0  0  0  0  0  0  0  0  0  0  0
    4.8781   -2.8423    1.2605 C   0  0  2  0  0  0  0  0  0  0  0  0
    5.4071   -1.9497    0.0683 C   0  0  2  0  0  0  0  0  0  0  0  0
    6.6508   -1.2984    0.2832 O   0  0  0  0  0  0  0  0  0  0  0  0
    7.7582   -2.3070    0.5435 O   0  0  0  0  0  0  0  0  0  0  0  0
    3.0553   -3.5304    3.3475 H   0  0  0  0  0  0  0  0  0  0  0  0
    3.4788   -2.3086    4.5166 H   0  0  0  0  0  0  0  0  0  0  0  0
    4.6157   -3.5714    4.1388 H   0  0  0  0  0  0  0  0  0  0  0  0
    5.3064   -1.5006    2.9097 H   0  0  0  0  0  0  0  0  0  0  0  0
    2.4599   -1.4539    1.8246 H   0  0  0  0  0  0  0  0  0  0  0  0
    3.1682   -0.3568    2.9947 H   0  0  0  0  0  0  0  0  0  0  0  0
    3.1602    0.6749    0.8082 H   0  0  0  0  0  0  0  0  0  0  0  0
    4.7827    0.4767    1.4246 H   0  0  0  0  0  0  0  0  0  0  0  0
    4.9227   -0.0679   -0.8814 H   0  0  0  0  0  0  0  0  0  0  0  0
    2.8835   -3.7415   -1.7348 H   0  0  0  0  0  0  0  0  0  0  0  0
    3.2622   -3.5204   -3.4538 H   0  0  0  0  0  0  0  0  0  0  0  0
    1.8553   -2.7194   -2.7149 H   0  0  0  0  0  0  0  0  0  0  0  0
    4.0692    0.2090   -3.1526 H   0  0  0  0  0  0  0  0  0  0  0  0
    2.4443   -0.4403   -3.2889 H   0  0  0  0  0  0  0  0  0  0  0  0
    3.7257   -1.1089   -4.2966 H   0  0  0  0  0  0  0  0  0  0  0  0
    4.9610   -3.7505   -1.1204 H   0  0  0  0  0  0  0  0  0  0  0  0
    9.3803   -3.3082   -1.1886 H   0  0  0  0  0  0  0  0  0  0  0  0
    8.9375   -5.0023   -1.0099 H   0  0  0  0  0  0  0  0  0  0  0  0
    9.4797   -4.0706    0.4203 H   0  0  0  0  0  0  0  0  0  0  0  0
    6.2229   -5.2457    0.0198 H   0  0  0  0  0  0  0  0  0  0  0  0
    7.4883   -5.1475    1.1981 H   0  0  0  0  0  0  0  0  0  0  0  0
    5.4344   -4.7171    2.2628 H   0  0  0  0  0  0  0  0  0  0  0  0
    6.5983   -3.3962    2.4083 H   0  0  0  0  0  0  0  0  0  0  0  0
    3.9828   -3.3607    0.9104 H   0  0  0  0  0  0  0  0  0  0  0  0
  1  2  1  0
  1 21  1  0
  1 22  1  0
  1 23  1  0
  2 17  1  0
  2  3  1  0
  2 24  1  1
  3  4  1  0
  3 25  1  0
  3 26  1  0
  4  5  1  0
  4 27  1  0
  4 28  1  0
  5 18  1  0
  5  6  1  0
  5 29  1  6
  6  7  1  0
  7  8  1  0
  7  9  1  0
  7 10  1  0
  8 30  1  0
  8 31  1  0
  8 32  1  0
  9 33  1  0
  9 34  1  0
  9 35  1  0
 10 11  1  0
 11 18  1  0
 11 12  1  0
 11 36  1  1
 12 13  1  0
 13 20  1  0
 13 14  1  6
 13 15  1  0
 14 37  1  0
 14 38  1  0
 14 39  1  0
 15 16  1  0
 15 40  1  0
 15 41  1  0
 16 17  1  0
 16 42  1  0
 16 43  1  0
 17 18  1  0
 17 44  1  6
 18 19  1  1
 19 20  1  0
M  END
>  <i_m_ct_stereo_status>  (263) 
1

>  <s_m_source_file>  (263) 
/var/tmp/pbs.5076255.sched01/tmpgyl_4d9e/126kfdajayx.sdf

>  <i_m_source_file_index>  (263) 
12

>  <i_lp_mmshare_version>  (263) 
48012

>  <i_f3d_flags>  (263) 
0

>  <s_epik_input>  (263) 
W0NAQF0xMjNbQ0BASF00W0NIMl1bQ0gyXVtDQEBIXShbQ0gzXSlbQ0BASF0yW0NIMl1bQ0gyXVtDQF0oW0NIM10pKE9PMylPW0NAQEhdMU9DKE80KShbQ0gzXSlbQ0gzXQ==

>  <s_epik_cmdline>  (263) 
J2VwaWtfcHl0aG9uJywgJy1waHQnLCAnMi4wJywgJy1waCcsICc3LjAnLCAnLXRuJywgJzgnLCAnLW1hJywgJzIwMCcsICctaW1hZScsICc8aW5maWxlLm1hZT4nLCAnLW9tYWUnLCAnPG91dGZpbGUubWFlPic=

>  <r_lp_tautomer_probability>  (263) 
1

>  <r_epik_Ionization_Penalty>  (263) 
4.59138e-14

>  <r_epik_Ionization_Penalty_Charging>  (263) 
0

>  <r_epik_Ionization_Penalty_Neutral>  (263) 
4.59138e-14

>  <r_epik_State_Penalty>  (263) 
-0

>  <r_epik_Charging_Adjusted_Penalty>  (263) 
0

>  <i_epik_Tot_Q>  (263) 
0

>  <i_epik_Tot_abs_Q>  (263) 
0

>  <s_epik_Chemistry_Notes>  (263) 
This compound contains an acetal/aminal-like group ( X-CH(R)-Y where X, Y are N, S, or O) that may be acid/base labile, releasing an aldehyde.

>  <s_lp_Force_Field>  (263) 
OPLS3e

>  <r_lp_Energy>  (263) 
33.039

>  <b_lp_Chiralities_Consistent>  (263) 
1

>  <s_lp_Variant>  (263) 
88:0-1

>  <s_i_glide_gridfile>  (263) 
pfpi4k_grid

>  <i_i_glide_lignum>  (263) 
12

>  <i_i_glide_rotatable_bonds>  (263) 
0

>  <r_i_docking_score>  (263) 
-3.40441

>  <r_i_glide_ligand_efficiency>  (263) 
-0.17022

>  <r_i_glide_ligand_efficiency_sa>  (263) 
-0.462049

>  <r_i_glide_ligand_efficiency_ln>  (263) 
-0.852011

>  <r_i_glide_gscore>  (263) 
-3.40441

>  <r_i_glide_lipo>  (263) 
-0.429041

>  <r_i_glide_hbond>  (263) 
-0.0178788

>  <r_i_glide_metal>  (263) 
-0

>  <r_i_glide_rewards>  (263) 
-1.71641

>  <r_i_glide_evdw>  (263) 
-22.3168

>  <r_i_glide_ecoul>  (263) 
-0.568797

>  <r_i_glide_erotb>  (263) 
0

>  <r_i_glide_esite>  (263) 
-0.0399223

>  <r_i_glide_emodel>  (263) 
-27.684

>  <r_i_glide_energy>  (263) 
-22.8856

>  <r_i_glide_einternal>  (263) 
0

>  <r_i_glide_intrahb_reward>  (263) 
-0

>  <i_i_glide_confnum>  (263) 
1

>  <i_i_glide_posenum>  (263) 
9

>  <r_i_glide_eff_state_penalty>  (263) 
0

>  <ligand_id>  (263) 
88

>  <original_smiles>  (263) 
CC1CCC2OC(C)(C)OC3OC4(C)CCC1C23OO4

>  <smiles>  (263) 
[H]C([H])([H])C1(C([H])([H])[H])OC2([H])OC3(C([H])([H])[H])OOC24C([H])(O1)C([H])([H])C([H])([H])C([H])(C([H])([H])[H])C4([H])C([H])([H])C3([H])[H]

$$$$
88:0:2
     RDKit          3D

 44 47  0  0  1  0  0  0  0  0999 V2000
    2.1630   -0.7516    2.3494 C   0  0  0  0  0  0  0  0  0  0  0  0
    1.8630   -0.0517    3.7159 C   0  0  2  0  0  0  0  0  0  0  0  0
    0.7845   -0.8341    4.4783 C   0  0  0  0  0  0  0  0  0  0  0  0
    0.5111   -0.2154    5.8540 C   0  0  0  0  0  0  0  0  0  0  0  0
    0.1093    1.2757    5.7904 C   0  0  2  0  0  0  0  0  0  0  0  0
   -1.2086    1.4262    5.3068 O   0  0  0  0  0  0  0  0  0  0  0  0
   -1.6811    2.7339    5.4010 C   0  0  0  0  0  0  0  0  0  0  0  0
   -2.4814    3.0668    4.1397 C   0  0  0  0  0  0  0  0  0  0  0  0
   -2.5374    2.8647    6.6634 C   0  0  0  0  0  0  0  0  0  0  0  0
   -0.6596    3.6737    5.5358 O   0  0  0  0  0  0  0  0  0  0  0  0
    0.4033    3.4829    4.6579 C   0  0  1  0  0  0  0  0  0  0  0  0
    1.3141    4.5212    4.7976 O   0  0  0  0  0  0  0  0  0  0  0  0
    2.6194    4.2411    4.3453 C   0  0  2  0  0  0  0  0  0  0  0  0
    3.4072    5.5501    4.4467 C   0  0  0  0  0  0  0  0  0  0  0  0
    2.6113    3.7161    2.8899 C   0  0  0  0  0  0  0  0  0  0  0  0
    2.5784    2.1848    2.8075 C   0  0  0  0  0  0  0  0  0  0  0  0
    1.4699    1.4431    3.5804 C   0  0  2  0  0  0  0  0  0  0  0  0
    1.1112    2.1219    4.9496 C   0  0  2  0  0  0  0  0  0  0  0  0
    2.2084    2.3732    5.8146 O   0  0  0  0  0  0  0  0  0  0  0  0
    3.2496    3.2512    5.1512 O   0  0  0  0  0  0  0  0  0  0  0  0
    1.3127   -0.6619    1.6665 H   0  0  0  0  0  0  0  0  0  0  0  0
    2.3613   -1.8263    2.4568 H   0  0  0  0  0  0  0  0  0  0  0  0
    3.0327   -0.3444    1.8237 H   0  0  0  0  0  0  0  0  0  0  0  0
    2.7873   -0.0997    4.3066 H   0  0  0  0  0  0  0  0  0  0  0  0
   -0.1174   -0.9073    3.8815 H   0  0  0  0  0  0  0  0  0  0  0  0
    1.1478   -1.8570    4.6361 H   0  0  0  0  0  0  0  0  0  0  0  0
   -0.2493   -0.8120    6.3804 H   0  0  0  0  0  0  0  0  0  0  0  0
    1.4208   -0.2672    6.4387 H   0  0  0  0  0  0  0  0  0  0  0  0
    0.0882    1.6221    6.8272 H   0  0  0  0  0  0  0  0  0  0  0  0
   -1.9381    2.8114    3.2246 H   0  0  0  0  0  0  0  0  0  0  0  0
   -2.6489    4.1301    4.1437 H   0  0  0  0  0  0  0  0  0  0  0  0
   -3.4115    2.5287    4.1241 H   0  0  0  0  0  0  0  0  0  0  0  0
   -1.9831    2.6366    7.5834 H   0  0  0  0  0  0  0  0  0  0  0  0
   -3.3706    2.1849    6.6192 H   0  0  0  0  0  0  0  0  0  0  0  0
   -2.9096    3.8728    6.7459 H   0  0  0  0  0  0  0  0  0  0  0  0
    0.0517    3.5546    3.6351 H   0  0  0  0  0  0  0  0  0  0  0  0
    3.3919    5.9336    5.4650 H   0  0  0  0  0  0  0  0  0  0  0  0
    2.9726    6.3030    3.7883 H   0  0  0  0  0  0  0  0  0  0  0  0
    4.4465    5.3995    4.1524 H   0  0  0  0  0  0  0  0  0  0  0  0
    1.7902    4.1605    2.3133 H   0  0  0  0  0  0  0  0  0  0  0  0
    3.4997    4.0512    2.3601 H   0  0  0  0  0  0  0  0  0  0  0  0
    2.5256    1.9378    1.7509 H   0  0  0  0  0  0  0  0  0  0  0  0
    3.5415    1.8164    3.1606 H   0  0  0  0  0  0  0  0  0  0  0  0
    0.5699    1.4630    2.9643 H   0  0  0  0  0  0  0  0  0  0  0  0
  1  2  1  0
  1 21  1  0
  1 22  1  0
  1 23  1  0
  2 17  1  0
  2  3  1  0
  2 24  1  1
  3  4  1  0
  3 25  1  0
  3 26  1  0
  4  5  1  0
  4 27  1  0
  4 28  1  0
  5 18  1  0
  5  6  1  0
  5 29  1  1
  6  7  1  0
  7  8  1  0
  7  9  1  0
  7 10  1  0
  8 30  1  0
  8 31  1  0
  8 32  1  0
  9 33  1  0
  9 34  1  0
  9 35  1  0
 10 11  1  0
 11 18  1  0
 11 12  1  0
 11 36  1  6
 12 13  1  0
 13 20  1  0
 13 14  1  6
 13 15  1  0
 14 37  1  0
 14 38  1  0
 14 39  1  0
 15 16  1  0
 15 40  1  0
 15 41  1  0
 16 17  1  0
 16 42  1  0
 16 43  1  0
 17 18  1  0
 17 44  1  6
 18 19  1  1
 19 20  1  0
M  END
>  <i_m_ct_stereo_status>  (264) 
1

>  <s_m_source_file>  (264) 
/var/tmp/pbs.5076255.sched01/tmpgyl_4d9e/126kfdajayx.sdf

>  <i_m_source_file_index>  (264) 
12

>  <i_lp_mmshare_version>  (264) 
48012

>  <i_f3d_flags>  (264) 
0

>  <s_epik_input>  (264) 
W0NAQF0xMjNbQ0BASF00W0NIMl1bQ0gyXVtDQEBIXShbQ0gzXSlbQ0BASF0yW0NIMl1bQ0gyXVtDQF0oW0NIM10pKE9PMylPW0NAQEhdMU9DKE80KShbQ0gzXSlbQ0gzXQ==

>  <s_epik_cmdline>  (264) 
J2VwaWtfcHl0aG9uJywgJy1waHQnLCAnMi4wJywgJy1waCcsICc3LjAnLCAnLXRuJywgJzgnLCAnLW1hJywgJzIwMCcsICctaW1hZScsICc8aW5maWxlLm1hZT4nLCAnLW9tYWUnLCAnPG91dGZpbGUubWFlPic=

>  <r_lp_tautomer_probability>  (264) 
1

>  <r_epik_Ionization_Penalty>  (264) 
4.59138e-14

>  <r_epik_Ionization_Penalty_Charging>  (264) 
0

>  <r_epik_Ionization_Penalty_Neutral>  (264) 
4.59138e-14

>  <r_epik_State_Penalty>  (264) 
-0

>  <r_epik_Charging_Adjusted_Penalty>  (264) 
0

>  <i_epik_Tot_Q>  (264) 
0

>  <i_epik_Tot_abs_Q>  (264) 
0

>  <s_epik_Chemistry_Notes>  (264) 
This compound contains an acetal/aminal-like group ( X-CH(R)-Y where X, Y are N, S, or O) that may be acid/base labile, releasing an aldehyde.

>  <s_lp_Force_Field>  (264) 
OPLS3e

>  <r_lp_Energy>  (264) 
33.039

>  <b_lp_Chiralities_Consistent>  (264) 
1

>  <s_lp_Variant>  (264) 
88:0-1

>  <s_i_glide_gridfile>  (264) 
pfpi4k_grid

>  <i_i_glide_lignum>  (264) 
12

>  <i_i_glide_rotatable_bonds>  (264) 
0

>  <r_i_docking_score>  (264) 
-2.81464

>  <r_i_glide_ligand_efficiency>  (264) 
-0.140732

>  <r_i_glide_ligand_efficiency_sa>  (264) 
-0.382005

>  <r_i_glide_ligand_efficiency_ln>  (264) 
-0.704411

>  <r_i_glide_gscore>  (264) 
-2.81464

>  <r_i_glide_lipo>  (264) 
-0.146921

>  <r_i_glide_hbond>  (264) 
0

>  <r_i_glide_metal>  (264) 
-0

>  <r_i_glide_rewards>  (264) 
-1.51645

>  <r_i_glide_evdw>  (264) 
-18.2558

>  <r_i_glide_ecoul>  (264) 
-1.35452

>  <r_i_glide_erotb>  (264) 
0

>  <r_i_glide_esite>  (264) 
-0.0352961

>  <r_i_glide_emodel>  (264) 
-23.6824

>  <r_i_glide_energy>  (264) 
-19.6103

>  <r_i_glide_einternal>  (264) 
0

>  <r_i_glide_intrahb_reward>  (264) 
-0

>  <i_i_glide_confnum>  (264) 
1

>  <i_i_glide_posenum>  (264) 
16

>  <r_i_glide_eff_state_penalty>  (264) 
0

>  <ligand_id>  (264) 
88

>  <original_smiles>  (264) 
CC1CCC2OC(C)(C)OC3OC4(C)CCC1C23OO4

>  <smiles>  (264) 
[H]C([H])([H])C1(C([H])([H])[H])OC2([H])OC3(C([H])([H])[H])OOC24C([H])(O1)C([H])([H])C([H])([H])C([H])(C([H])([H])[H])C4([H])C([H])([H])C3([H])[H]

$$$$
89:0:0
     RDKit          3D

 65 68  0  0  1  0  0  0  0  0999 V2000
   -2.5721    2.7725    8.9732 C   0  0  0  0  0  0  0  0  0  0  0  0
   -2.8207    2.7488    7.4610 C   0  0  0  0  0  0  0  0  0  0  0  0
   -1.5601    2.4080    6.6520 C   0  0  0  0  0  0  0  0  0  0  0  0
   -1.8204    2.3342    5.1386 C   0  0  0  0  0  0  0  0  0  0  0  0
   -0.5570    2.0009    4.3345 C   0  0  0  0  0  0  0  0  0  0  0  0
   -0.8200    1.9337    2.8229 C   0  0  0  0  0  0  0  0  0  0  0  0
    0.4395    1.6180    2.0180 C   0  0  0  0  0  0  0  0  0  0  0  0
    0.8299    0.2881    2.3182 O   0  0  0  0  0  0  0  0  0  0  0  0
    2.0906   -0.0490    1.7586 C   0  0  0  0  0  0  0  0  0  0  0  0
    2.2547   -1.5834    1.7158 C   0  0  2  0  0  0  0  0  0  0  0  0
    1.9810   -2.2140    3.0871 C   0  0  0  0  0  0  0  0  0  0  0  0
    2.1182   -3.6328    3.0282 O   0  0  0  0  0  0  0  0  0  0  0  0
    3.3996   -4.0745    2.6743 C   0  0  1  0  0  0  0  0  0  0  0  0
    3.4574   -5.4863    2.7456 O   0  0  0  0  0  0  0  0  0  0  0  0
    3.1021   -6.1369    1.5252 C   0  0  2  0  0  0  0  0  0  0  0  0
    2.3817   -7.4469    1.8593 C   0  0  0  0  0  0  0  0  0  0  0  0
    4.3841   -6.4463    0.7087 C   0  0  0  0  0  0  0  0  0  0  0  0
    5.5319   -5.4658    0.9782 C   0  0  0  0  0  0  0  0  0  0  0  0
    5.1916   -3.9672    0.8216 C   0  0  1  0  0  0  0  0  0  0  0  0
    5.5995   -3.3929   -0.5534 C   0  0  1  0  0  0  0  0  0  0  0  0
    4.8589   -4.0221   -1.7588 C   0  0  0  0  0  0  0  0  0  0  0  0
    5.4414   -1.8647   -0.5773 C   0  0  0  0  0  0  0  0  0  0  0  0
    4.0368   -1.4272   -0.1443 C   0  0  0  0  0  0  0  0  0  0  0  0
    3.6538   -2.0015    1.2327 C   0  0  2  0  0  0  0  0  0  0  0  0
    3.7508   -3.5591    1.2366 C   0  0  2  0  0  0  0  0  0  0  0  0
    2.8657   -4.0945    0.2283 O   0  0  0  0  0  0  0  0  0  0  0  0
    2.1799   -5.3621    0.7802 O   0  0  0  0  0  0  0  0  0  0  0  0
   -3.4872    3.0102    9.5157 H   0  0  0  0  0  0  0  0  0  0  0  0
   -1.8260    3.5216    9.2382 H   0  0  0  0  0  0  0  0  0  0  0  0
   -2.2158    1.8068    9.3320 H   0  0  0  0  0  0  0  0  0  0  0  0
   -3.6090    2.0278    7.2431 H   0  0  0  0  0  0  0  0  0  0  0  0
   -3.1969    3.7217    7.1445 H   0  0  0  0  0  0  0  0  0  0  0  0
   -0.7950    3.1603    6.8500 H   0  0  0  0  0  0  0  0  0  0  0  0
   -1.1506    1.4570    6.9961 H   0  0  0  0  0  0  0  0  0  0  0  0
   -2.5772    1.5770    4.9327 H   0  0  0  0  0  0  0  0  0  0  0  0
   -2.2354    3.2818    4.7910 H   0  0  0  0  0  0  0  0  0  0  0  0
    0.2090    2.7534    4.5281 H   0  0  0  0  0  0  0  0  0  0  0  0
   -0.1473    1.0499    4.6787 H   0  0  0  0  0  0  0  0  0  0  0  0
   -1.5783    1.1803    2.6016 H   0  0  0  0  0  0  0  0  0  0  0  0
   -1.2191    2.8878    2.4827 H   0  0  0  0  0  0  0  0  0  0  0  0
    0.2281    1.6960    0.9525 H   0  0  0  0  0  0  0  0  0  0  0  0
    1.2379    2.3296    2.2501 H   0  0  0  0  0  0  0  0  0  0  0  0
    2.1524    0.3759    0.7514 H   0  0  0  0  0  0  0  0  0  0  0  0
    2.8780    0.4263    2.3492 H   0  0  0  0  0  0  0  0  0  0  0  0
    1.5175   -1.9743    1.0189 H   0  0  0  0  0  0  0  0  0  0  0  0
    2.6483   -1.8090    3.8450 H   0  0  0  0  0  0  0  0  0  0  0  0
    0.9610   -2.0092    3.4049 H   0  0  0  0  0  0  0  0  0  0  0  0
    4.0957   -3.7008    3.4365 H   0  0  0  0  0  0  0  0  0  0  0  0
    1.4584   -7.2624    2.4105 H   0  0  0  0  0  0  0  0  0  0  0  0
    3.0036   -8.1088    2.4543 H   0  0  0  0  0  0  0  0  0  0  0  0
    2.1138   -7.9784    0.9492 H   0  0  0  0  0  0  0  0  0  0  0  0
    4.7643   -7.4339    0.9679 H   0  0  0  0  0  0  0  0  0  0  0  0
    4.1323   -6.4900   -0.3552 H   0  0  0  0  0  0  0  0  0  0  0  0
    5.8803   -5.6363    1.9981 H   0  0  0  0  0  0  0  0  0  0  0  0
    6.3965   -5.7200    0.3633 H   0  0  0  0  0  0  0  0  0  0  0  0
    5.8508   -3.4744    1.5311 H   0  0  0  0  0  0  0  0  0  0  0  0
    6.6575   -3.5990   -0.6939 H   0  0  0  0  0  0  0  0  0  0  0  0
    3.7757   -3.8220   -1.7111 H   0  0  0  0  0  0  0  0  0  0  0  0
    4.9675   -5.1177   -1.7713 H   0  0  0  0  0  0  0  0  0  0  0  0
    5.2627   -3.6684   -2.7327 H   0  0  0  0  0  0  0  0  0  0  0  0
    6.1743   -1.4179    0.0978 H   0  0  0  0  0  0  0  0  0  0  0  0
    5.6671   -1.4733   -1.5691 H   0  0  0  0  0  0  0  0  0  0  0  0
    4.0422   -0.3373   -0.1415 H   0  0  0  0  0  0  0  0  0  0  0  0
    3.3011   -1.7244   -0.8936 H   0  0  0  0  0  0  0  0  0  0  0  0
    4.3742   -1.6207    1.9574 H   0  0  0  0  0  0  0  0  0  0  0  0
  1  2  1  0
  1 28  1  0
  1 29  1  0
  1 30  1  0
  2  3  1  0
  2 31  1  0
  2 32  1  0
  3  4  1  0
  3 33  1  0
  3 34  1  0
  4  5  1  0
  4 35  1  0
  4 36  1  0
  5  6  1  0
  5 37  1  0
  5 38  1  0
  6  7  1  0
  6 39  1  0
  6 40  1  0
  7  8  1  0
  7 41  1  0
  7 42  1  0
  8  9  1  0
  9 10  1  0
  9 43  1  0
  9 44  1  0
 10 24  1  0
 10 11  1  0
 10 45  1  6
 11 12  1  0
 11 46  1  0
 11 47  1  0
 12 13  1  0
 13 25  1  0
 13 14  1  0
 13 48  1  1
 14 15  1  0
 15 27  1  0
 15 16  1  1
 15 17  1  0
 16 49  1  0
 16 50  1  0
 16 51  1  0
 17 18  1  0
 17 52  1  0
 17 53  1  0
 18 19  1  0
 18 54  1  0
 18 55  1  0
 19 25  1  0
 19 20  1  0
 19 56  1  1
 20 21  1  0
 20 22  1  0
 20 57  1  6
 21 58  1  0
 21 59  1  0
 21 60  1  0
 22 23  1  0
 22 61  1  0
 22 62  1  0
 23 24  1  0
 23 63  1  0
 23 64  1  0
 24 25  1  0
 24 65  1  1
 25 26  1  6
 26 27  1  0
M  END
>  <i_m_ct_stereo_status>  (265) 
1

>  <s_m_source_file>  (265) 
/var/tmp/pbs.5076255.sched01/tmpgyl_4d9e/126kfdajayx.sdf

>  <i_m_source_file_index>  (265) 
13

>  <i_lp_mmshare_version>  (265) 
48012

>  <i_f3d_flags>  (265) 
0

>  <s_epik_input>  (265) 
W0NIM11bQ0gyXVtDSDJdW0NIMl1bQ0gyXVtDSDJdW0NIMl1PW0NIMl1bQ0BIXShbQ0gyXU9bQ0BASF0xW0NAXTIzNClbQ0BASF0zW0NIMl1bQ0gyXVtDQEhdKFtDSDNdKVtDQEBIXTJbQ0gyXVtDSDJdW0NAXShPMSkoW0NIM10pT080

>  <s_epik_cmdline>  (265) 
J2VwaWtfcHl0aG9uJywgJy1waHQnLCAnMi4wJywgJy1waCcsICc3LjAnLCAnLXRuJywgJzgnLCAnLW1hJywgJzIwMCcsICctaW1hZScsICc8aW5maWxlLm1hZT4nLCAnLW9tYWUnLCAnPG91dGZpbGUubWFlPic=

>  <r_lp_tautomer_probability>  (265) 
1

>  <r_epik_Ionization_Penalty>  (265) 
1.69159e-11

>  <r_epik_Ionization_Penalty_Charging>  (265) 
0

>  <r_epik_Ionization_Penalty_Neutral>  (265) 
1.69159e-11

>  <r_epik_State_Penalty>  (265) 
-0

>  <r_epik_Charging_Adjusted_Penalty>  (265) 
0

>  <i_epik_Tot_Q>  (265) 
0

>  <i_epik_Tot_abs_Q>  (265) 
0

>  <s_epik_Chemistry_Notes>  (265) 
This compound contains an acetal/aminal-like group ( X-CH(R)-Y where X, Y are N, S, or O) that may be acid/base labile, releasing an aldehyde.

>  <s_lp_Force_Field>  (265) 
OPLS3e

>  <r_lp_Energy>  (265) 
34.7496

>  <b_lp_Chiralities_Consistent>  (265) 
1

>  <s_lp_Variant>  (265) 
89:0-1

>  <s_i_glide_gridfile>  (265) 
pfpi4k_grid

>  <i_i_glide_lignum>  (265) 
13

>  <i_i_glide_rotatable_bonds>  (265) 
8

>  <r_i_docking_score>  (265) 
-1.63592

>  <r_i_glide_ligand_efficiency>  (265) 
-0.0605897

>  <r_i_glide_ligand_efficiency_sa>  (265) 
-0.181769

>  <r_i_glide_ligand_efficiency_ln>  (265) 
-0.380816

>  <r_i_glide_gscore>  (265) 
-1.63592

>  <r_i_glide_lipo>  (265) 
-0.520579

>  <r_i_glide_hbond>  (265) 
-0.0179454

>  <r_i_glide_metal>  (265) 
-0

>  <r_i_glide_rewards>  (265) 
-0.848571

>  <r_i_glide_evdw>  (265) 
-24.24

>  <r_i_glide_ecoul>  (265) 
0.227099

>  <r_i_glide_erotb>  (265) 
0.929107

>  <r_i_glide_esite>  (265) 
0

>  <r_i_glide_emodel>  (265) 
-25.2515

>  <r_i_glide_energy>  (265) 
-24.0129

>  <r_i_glide_einternal>  (265) 
1.38568

>  <r_i_glide_intrahb_reward>  (265) 
-0

>  <i_i_glide_confnum>  (265) 
5

>  <i_i_glide_posenum>  (265) 
2

>  <r_i_glide_eff_state_penalty>  (265) 
0

>  <ligand_id>  (265) 
89

>  <original_smiles>  (265) 
CCCCCCCOCC1COC2OC3(C)CCC4C(C)CCC1C24OO3

>  <smiles>  (265) 
[H]C([H])([H])C([H])([H])C([H])([H])C([H])([H])C([H])([H])C([H])([H])C([H])([H])OC([H])([H])C1([H])C([H])([H])OC2([H])OC3(C([H])([H])[H])OOC24C1([H])C([H])([H])C([H])([H])C([H])(C([H])([H])[H])C4([H])C([H])([H])C3([H])[H]

$$$$
89:0:1
     RDKit          3D

 65 68  0  0  1  0  0  0  0  0999 V2000
    3.6764    0.1840   -3.6345 C   0  0  0  0  0  0  0  0  0  0  0  0
    3.9609   -1.0572   -4.4848 C   0  0  0  0  0  0  0  0  0  0  0  0
    3.6941   -2.4083   -3.8132 C   0  0  0  0  0  0  0  0  0  0  0  0
    4.5178   -2.6660   -2.5480 C   0  0  0  0  0  0  0  0  0  0  0  0
    3.9924   -1.9120   -1.3020 C   0  0  0  0  0  0  0  0  0  0  0  0
    4.9984   -1.9864   -0.1360 C   0  0  0  0  0  0  0  0  0  0  0  0
    4.3148   -1.5603    1.1761 C   0  0  0  0  0  0  0  0  0  0  0  0
    3.3005   -2.4835    1.5355 O   0  0  0  0  0  0  0  0  0  0  0  0
    3.8053   -3.7356    1.9400 C   0  0  0  0  0  0  0  0  0  0  0  0
    2.6666   -4.7162    2.1844 C   0  0  2  0  0  0  0  0  0  0  0  0
    1.6480   -4.1314    3.1787 C   0  0  0  0  0  0  0  0  0  0  0  0
    0.6335   -5.0631    3.4402 O   0  0  0  0  0  0  0  0  0  0  0  0
    1.0181   -6.2542    4.0225 C   0  0  1  0  0  0  0  0  0  0  0  0
   -0.0945   -7.0524    4.3018 O   0  0  0  0  0  0  0  0  0  0  0  0
   -0.4698   -7.9231    3.2346 C   0  0  2  0  0  0  0  0  0  0  0  0
   -1.9898   -8.0868    3.2414 C   0  0  0  0  0  0  0  0  0  0  0  0
    0.1726   -9.3170    3.4248 C   0  0  0  0  0  0  0  0  0  0  0  0
    1.4935   -9.2748    4.2116 C   0  0  0  0  0  0  0  0  0  0  0  0
    2.5588   -8.3003    3.6662 C   0  0  1  0  0  0  0  0  0  0  0  0
    3.5963   -9.0077    2.7458 C   0  0  1  0  0  0  0  0  0  0  0  0
    2.9913   -9.6007    1.4705 C   0  0  0  0  0  0  0  0  0  0  0  0
    4.7478   -8.0473    2.4082 C   0  0  0  0  0  0  0  0  0  0  0  0
    4.2379   -6.7381    1.8035 C   0  0  0  0  0  0  0  0  0  0  0  0
    3.1979   -6.0497    2.7340 C   0  0  2  0  0  0  0  0  0  0  0  0
    1.9986   -6.9877    3.0341 C   0  0  2  0  0  0  0  0  0  0  0  0
    1.3390   -7.2796    1.7938 O   0  0  0  0  0  0  0  0  0  0  0  0
   -0.1590   -7.3506    1.9696 O   0  0  0  0  0  0  0  0  0  0  0  0
    3.6968    1.0997   -4.2521 H   0  0  0  0  0  0  0  0  0  0  0  0
    4.3483    0.2557   -2.8181 H   0  0  0  0  0  0  0  0  0  0  0  0
    2.6658    0.1360   -3.2233 H   0  0  0  0  0  0  0  0  0  0  0  0
    3.4082   -1.0023   -5.4211 H   0  0  0  0  0  0  0  0  0  0  0  0
    5.0241   -1.0127   -4.7596 H   0  0  0  0  0  0  0  0  0  0  0  0
    2.6303   -2.5438   -3.5928 H   0  0  0  0  0  0  0  0  0  0  0  0
    3.9277   -3.1941   -4.5220 H   0  0  0  0  0  0  0  0  0  0  0  0
    4.5309   -3.7388   -2.3574 H   0  0  0  0  0  0  0  0  0  0  0  0
    5.5558   -2.4263   -2.7233 H   0  0  0  0  0  0  0  0  0  0  0  0
    3.7660   -0.9168   -1.4461 H   0  0  0  0  0  0  0  0  0  0  0  0
    3.0501   -2.4171   -1.0063 H   0  0  0  0  0  0  0  0  0  0  0  0
    5.4821   -2.9615   -0.0511 H   0  0  0  0  0  0  0  0  0  0  0  0
    5.7965   -1.2995   -0.3525 H   0  0  0  0  0  0  0  0  0  0  0  0
    5.0245   -1.4380    1.9956 H   0  0  0  0  0  0  0  0  0  0  0  0
    3.8377   -0.5883    1.0436 H   0  0  0  0  0  0  0  0  0  0  0  0
    4.4151   -4.1452    1.1412 H   0  0  0  0  0  0  0  0  0  0  0  0
    4.4277   -3.6168    2.8267 H   0  0  0  0  0  0  0  0  0  0  0  0
    2.1678   -4.8909    1.2293 H   0  0  0  0  0  0  0  0  0  0  0  0
    2.1485   -3.8551    4.1083 H   0  0  0  0  0  0  0  0  0  0  0  0
    1.2030   -3.2237    2.7672 H   0  0  0  0  0  0  0  0  0  0  0  0
    1.4973   -6.0199    4.9740 H   0  0  0  0  0  0  0  0  0  0  0  0
   -2.4866   -7.1306    3.0828 H   0  0  0  0  0  0  0  0  0  0  0  0
   -2.3342   -8.5046    4.1899 H   0  0  0  0  0  0  0  0  0  0  0  0
   -2.3152   -8.7666    2.4484 H   0  0  0  0  0  0  0  0  0  0  0  0
   -0.4912   -9.9665    4.0041 H   0  0  0  0  0  0  0  0  0  0  0  0
    0.2736   -9.8070    2.4529 H   0  0  0  0  0  0  0  0  0  0  0  0
    1.2601   -8.9990    5.2434 H   0  0  0  0  0  0  0  0  0  0  0  0
    1.9127  -10.2753    4.3035 H   0  0  0  0  0  0  0  0  0  0  0  0
    3.1219   -7.9947    4.5572 H   0  0  0  0  0  0  0  0  0  0  0  0
    4.0348   -9.8229    3.3223 H   0  0  0  0  0  0  0  0  0  0  0  0
    2.6046   -8.8194    0.8308 H   0  0  0  0  0  0  0  0  0  0  0  0
    2.1728  -10.2799    1.6846 H   0  0  0  0  0  0  0  0  0  0  0  0
    3.7424  -10.1622    0.9197 H   0  0  0  0  0  0  0  0  0  0  0  0
    5.3388   -7.8208    3.3035 H   0  0  0  0  0  0  0  0  0  0  0  0
    5.4400   -8.5245    1.7170 H   0  0  0  0  0  0  0  0  0  0  0  0
    5.1163   -6.1165    1.6414 H   0  0  0  0  0  0  0  0  0  0  0  0
    3.8046   -6.9096    0.8195 H   0  0  0  0  0  0  0  0  0  0  0  0
    3.7099   -5.8276    3.6758 H   0  0  0  0  0  0  0  0  0  0  0  0
  1  2  1  0
  1 28  1  0
  1 29  1  0
  1 30  1  0
  2  3  1  0
  2 31  1  0
  2 32  1  0
  3  4  1  0
  3 33  1  0
  3 34  1  0
  4  5  1  0
  4 35  1  0
  4 36  1  0
  5  6  1  0
  5 37  1  0
  5 38  1  0
  6  7  1  0
  6 39  1  0
  6 40  1  0
  7  8  1  0
  7 41  1  0
  7 42  1  0
  8  9  1  0
  9 10  1  0
  9 43  1  0
  9 44  1  0
 10 24  1  0
 10 11  1  0
 10 45  1  6
 11 12  1  0
 11 46  1  0
 11 47  1  0
 12 13  1  0
 13 25  1  0
 13 14  1  0
 13 48  1  1
 14 15  1  0
 15 27  1  0
 15 16  1  6
 15 17  1  0
 16 49  1  0
 16 50  1  0
 16 51  1  0
 17 18  1  0
 17 52  1  0
 17 53  1  0
 18 19  1  0
 18 54  1  0
 18 55  1  0
 19 25  1  0
 19 20  1  0
 19 56  1  1
 20 21  1  0
 20 22  1  0
 20 57  1  1
 21 58  1  0
 21 59  1  0
 21 60  1  0
 22 23  1  0
 22 61  1  0
 22 62  1  0
 23 24  1  0
 23 63  1  0
 23 64  1  0
 24 25  1  0
 24 65  1  1
 25 26  1  6
 26 27  1  0
M  END
>  <i_m_ct_stereo_status>  (266) 
1

>  <s_m_source_file>  (266) 
/var/tmp/pbs.5076255.sched01/tmpgyl_4d9e/126kfdajayx.sdf

>  <i_m_source_file_index>  (266) 
13

>  <i_lp_mmshare_version>  (266) 
48012

>  <i_f3d_flags>  (266) 
0

>  <s_epik_input>  (266) 
W0NIM11bQ0gyXVtDSDJdW0NIMl1bQ0gyXVtDSDJdW0NIMl1PW0NIMl1bQ0BIXShbQ0gyXU9bQ0BASF0xW0NAXTIzNClbQ0BASF0zW0NIMl1bQ0gyXVtDQEhdKFtDSDNdKVtDQEBIXTJbQ0gyXVtDSDJdW0NAXShPMSkoW0NIM10pT080

>  <s_epik_cmdline>  (266) 
J2VwaWtfcHl0aG9uJywgJy1waHQnLCAnMi4wJywgJy1waCcsICc3LjAnLCAnLXRuJywgJzgnLCAnLW1hJywgJzIwMCcsICctaW1hZScsICc8aW5maWxlLm1hZT4nLCAnLW9tYWUnLCAnPG91dGZpbGUubWFlPic=

>  <r_lp_tautomer_probability>  (266) 
1

>  <r_epik_Ionization_Penalty>  (266) 
1.69159e-11

>  <r_epik_Ionization_Penalty_Charging>  (266) 
0

>  <r_epik_Ionization_Penalty_Neutral>  (266) 
1.69159e-11

>  <r_epik_State_Penalty>  (266) 
-0

>  <r_epik_Charging_Adjusted_Penalty>  (266) 
0

>  <i_epik_Tot_Q>  (266) 
0

>  <i_epik_Tot_abs_Q>  (266) 
0

>  <s_epik_Chemistry_Notes>  (266) 
This compound contains an acetal/aminal-like group ( X-CH(R)-Y where X, Y are N, S, or O) that may be acid/base labile, releasing an aldehyde.

>  <s_lp_Force_Field>  (266) 
OPLS3e

>  <r_lp_Energy>  (266) 
34.7496

>  <b_lp_Chiralities_Consistent>  (266) 
1

>  <s_lp_Variant>  (266) 
89:0-1

>  <s_i_glide_gridfile>  (266) 
pfpi4k_grid

>  <i_i_glide_lignum>  (266) 
13

>  <i_i_glide_rotatable_bonds>  (266) 
8

>  <r_i_docking_score>  (266) 
-1.55837

>  <r_i_glide_ligand_efficiency>  (266) 
-0.0577173

>  <r_i_glide_ligand_efficiency_sa>  (266) 
-0.173152

>  <r_i_glide_ligand_efficiency_ln>  (266) 
-0.362762

>  <r_i_glide_gscore>  (266) 
-1.55837

>  <r_i_glide_lipo>  (266) 
-0.257648

>  <r_i_glide_hbond>  (266) 
-0.005122

>  <r_i_glide_metal>  (266) 
-0

>  <r_i_glide_rewards>  (266) 
-0.800904

>  <r_i_glide_evdw>  (266) 
-25.5614

>  <r_i_glide_ecoul>  (266) 
-0.519651

>  <r_i_glide_erotb>  (266) 
0.929107

>  <r_i_glide_esite>  (266) 
-0.0677846

>  <r_i_glide_emodel>  (266) 
-25.0387

>  <r_i_glide_energy>  (266) 
-26.081

>  <r_i_glide_einternal>  (266) 
4.19466

>  <r_i_glide_intrahb_reward>  (266) 
-0

>  <i_i_glide_confnum>  (266) 
5

>  <i_i_glide_posenum>  (266) 
35

>  <r_i_glide_eff_state_penalty>  (266) 
0

>  <ligand_id>  (266) 
89

>  <original_smiles>  (266) 
CCCCCCCOCC1COC2OC3(C)CCC4C(C)CCC1C24OO3

>  <smiles>  (266) 
[H]C([H])([H])C([H])([H])C([H])([H])C([H])([H])C([H])([H])C([H])([H])C([H])([H])OC([H])([H])C1([H])C([H])([H])OC2([H])OC3(C([H])([H])[H])OOC24C1([H])C([H])([H])C([H])([H])C([H])(C([H])([H])[H])C4([H])C([H])([H])C3([H])[H]

$$$$
89:0:2
     RDKit          3D

 65 68  0  0  1  0  0  0  0  0999 V2000
   -2.1161    3.0684    4.0748 C   0  0  0  0  0  0  0  0  0  0  0  0
   -0.9479    2.8737    3.1025 C   0  0  0  0  0  0  0  0  0  0  0  0
   -0.1511    1.5898    3.3728 C   0  0  0  0  0  0  0  0  0  0  0  0
    1.0263    1.4050    2.4014 C   0  0  0  0  0  0  0  0  0  0  0  0
    1.8555    0.1497    2.7127 C   0  0  0  0  0  0  0  0  0  0  0  0
    2.9975   -0.0777    1.7086 C   0  0  0  0  0  0  0  0  0  0  0  0
    3.8361   -1.3166    2.0302 C   0  0  0  0  0  0  0  0  0  0  0  0
    2.9862   -2.4492    1.9960 O   0  0  0  0  0  0  0  0  0  0  0  0
    3.6683   -3.6500    2.3149 C   0  0  0  0  0  0  0  0  0  0  0  0
    2.6584   -4.8114    2.3870 C   0  0  2  0  0  0  0  0  0  0  0  0
    1.5186   -4.4832    3.3645 C   0  0  0  0  0  0  0  0  0  0  0  0
    0.5888   -5.5614    3.4397 O   0  0  0  0  0  0  0  0  0  0  0  0
    1.1202   -6.7623    3.9236 C   0  0  1  0  0  0  0  0  0  0  0  0
    0.0926   -7.7262    4.0402 O   0  0  0  0  0  0  0  0  0  0  0  0
   -0.1081   -8.5016    2.8598 C   0  0  2  0  0  0  0  0  0  0  0  0
   -1.5928   -8.8461    2.7340 C   0  0  0  0  0  0  0  0  0  0  0  0
    0.7104   -9.8174    2.9545 C   0  0  0  0  0  0  0  0  0  0  0  0
    1.9698   -9.7003    3.8234 C   0  0  0  0  0  0  0  0  0  0  0  0
    2.9256   -8.5431    3.4671 C   0  0  1  0  0  0  0  0  0  0  0  0
    4.1073   -8.9876    2.5723 C   0  0  1  0  0  0  0  0  0  0  0  0
    3.6972   -9.4928    1.1782 C   0  0  0  0  0  0  0  0  0  0  0  0
    5.1381   -7.8619    2.4224 C   0  0  0  0  0  0  0  0  0  0  0  0
    4.4932   -6.5610    1.9322 C   0  0  0  0  0  0  0  0  0  0  0  0
    3.3234   -6.1240    2.8373 C   0  0  2  0  0  0  0  0  0  0  0  0
    2.2423   -7.2436    2.9514 C   0  0  2  0  0  0  0  0  0  0  0  0
    1.7289   -7.5106    1.6298 O   0  0  0  0  0  0  0  0  0  0  0  0
    0.2072   -7.7470    1.7069 O   0  0  0  0  0  0  0  0  0  0  0  0
   -2.6510    3.9893    3.8453 H   0  0  0  0  0  0  0  0  0  0  0  0
   -1.7680    3.1320    5.1066 H   0  0  0  0  0  0  0  0  0  0  0  0
   -2.8274    2.2444    4.0065 H   0  0  0  0  0  0  0  0  0  0  0  0
   -1.3317    2.8556    2.0819 H   0  0  0  0  0  0  0  0  0  0  0  0
   -0.2829    3.7361    3.1629 H   0  0  0  0  0  0  0  0  0  0  0  0
    0.2226    1.6076    4.3976 H   0  0  0  0  0  0  0  0  0  0  0  0
   -0.8187    0.7299    3.2997 H   0  0  0  0  0  0  0  0  0  0  0  0
    0.6454    1.3477    1.3799 H   0  0  0  0  0  0  0  0  0  0  0  0
    1.6721    2.2839    2.4367 H   0  0  0  0  0  0  0  0  0  0  0  0
    2.2691    0.2245    3.7204 H   0  0  0  0  0  0  0  0  0  0  0  0
    1.1972   -0.7199    2.7154 H   0  0  0  0  0  0  0  0  0  0  0  0
    2.5871   -0.1832    0.7033 H   0  0  0  0  0  0  0  0  0  0  0  0
    3.6484    0.7955    1.6900 H   0  0  0  0  0  0  0  0  0  0  0  0
    4.6357   -1.4328    1.2983 H   0  0  0  0  0  0  0  0  0  0  0  0
    4.3022   -1.2208    3.0137 H   0  0  0  0  0  0  0  0  0  0  0  0
    4.4265   -3.8129    1.5419 H   0  0  0  0  0  0  0  0  0  0  0  0
    4.1910   -3.5455    3.2694 H   0  0  0  0  0  0  0  0  0  0  0  0
    2.2359   -4.9471    1.3915 H   0  0  0  0  0  0  0  0  0  0  0  0
    1.9004   -4.2635    4.3596 H   0  0  0  0  0  0  0  0  0  0  0  0
    0.9679   -3.6072    3.0304 H   0  0  0  0  0  0  0  0  0  0  0  0
    1.4928   -6.5820    4.9355 H   0  0  0  0  0  0  0  0  0  0  0  0
   -2.2040   -7.9468    2.6342 H   0  0  0  0  0  0  0  0  0  0  0  0
   -1.9468   -9.4023    3.5974 H   0  0  0  0  0  0  0  0  0  0  0  0
   -1.7637   -9.4622    1.8531 H   0  0  0  0  0  0  0  0  0  0  0  0
    0.1082  -10.6042    3.4069 H   0  0  0  0  0  0  0  0  0  0  0  0
    0.9402  -10.1751    1.9474 H   0  0  0  0  0  0  0  0  0  0  0  0
    1.6435   -9.5775    4.8584 H   0  0  0  0  0  0  0  0  0  0  0  0
    2.5102  -10.6476    3.8335 H   0  0  0  0  0  0  0  0  0  0  0  0
    3.3866   -8.2794    4.4177 H   0  0  0  0  0  0  0  0  0  0  0  0
    4.6090   -9.8116    3.0741 H   0  0  0  0  0  0  0  0  0  0  0  0
    3.2360   -8.7096    0.5689 H   0  0  0  0  0  0  0  0  0  0  0  0
    2.9629  -10.3052    1.2392 H   0  0  0  0  0  0  0  0  0  0  0  0
    4.5692   -9.8799    0.6185 H   0  0  0  0  0  0  0  0  0  0  0  0
    5.6214   -7.6831    3.3849 H   0  0  0  0  0  0  0  0  0  0  0  0
    5.9340   -8.1646    1.7409 H   0  0  0  0  0  0  0  0  0  0  0  0
    5.2838   -5.8128    1.9065 H   0  0  0  0  0  0  0  0  0  0  0  0
    4.1501   -6.6722    0.9036 H   0  0  0  0  0  0  0  0  0  0  0  0
    3.7300   -5.9589    3.8350 H   0  0  0  0  0  0  0  0  0  0  0  0
  1  2  1  0
  1 28  1  0
  1 29  1  0
  1 30  1  0
  2  3  1  0
  2 31  1  0
  2 32  1  0
  3  4  1  0
  3 33  1  0
  3 34  1  0
  4  5  1  0
  4 35  1  0
  4 36  1  0
  5  6  1  0
  5 37  1  0
  5 38  1  0
  6  7  1  0
  6 39  1  0
  6 40  1  0
  7  8  1  0
  7 41  1  0
  7 42  1  0
  8  9  1  0
  9 10  1  0
  9 43  1  0
  9 44  1  0
 10 24  1  0
 10 11  1  0
 10 45  1  6
 11 12  1  0
 11 46  1  0
 11 47  1  0
 12 13  1  0
 13 25  1  0
 13 14  1  0
 13 48  1  1
 14 15  1  0
 15 27  1  0
 15 16  1  6
 15 17  1  0
 16 49  1  0
 16 50  1  0
 16 51  1  0
 17 18  1  0
 17 52  1  0
 17 53  1  0
 18 19  1  0
 18 54  1  0
 18 55  1  0
 19 25  1  0
 19 20  1  0
 19 56  1  1
 20 21  1  0
 20 22  1  0
 20 57  1  1
 21 58  1  0
 21 59  1  0
 21 60  1  0
 22 23  1  0
 22 61  1  0
 22 62  1  0
 23 24  1  0
 23 63  1  0
 23 64  1  0
 24 25  1  0
 24 65  1  1
 25 26  1  6
 26 27  1  0
M  END
>  <i_m_ct_stereo_status>  (267) 
1

>  <s_m_source_file>  (267) 
/var/tmp/pbs.5076255.sched01/tmpgyl_4d9e/126kfdajayx.sdf

>  <i_m_source_file_index>  (267) 
13

>  <i_lp_mmshare_version>  (267) 
48012

>  <i_f3d_flags>  (267) 
0

>  <s_epik_input>  (267) 
W0NIM11bQ0gyXVtDSDJdW0NIMl1bQ0gyXVtDSDJdW0NIMl1PW0NIMl1bQ0BIXShbQ0gyXU9bQ0BASF0xW0NAXTIzNClbQ0BASF0zW0NIMl1bQ0gyXVtDQEhdKFtDSDNdKVtDQEBIXTJbQ0gyXVtDSDJdW0NAXShPMSkoW0NIM10pT080

>  <s_epik_cmdline>  (267) 
J2VwaWtfcHl0aG9uJywgJy1waHQnLCAnMi4wJywgJy1waCcsICc3LjAnLCAnLXRuJywgJzgnLCAnLW1hJywgJzIwMCcsICctaW1hZScsICc8aW5maWxlLm1hZT4nLCAnLW9tYWUnLCAnPG91dGZpbGUubWFlPic=

>  <r_lp_tautomer_probability>  (267) 
1

>  <r_epik_Ionization_Penalty>  (267) 
1.69159e-11

>  <r_epik_Ionization_Penalty_Charging>  (267) 
0

>  <r_epik_Ionization_Penalty_Neutral>  (267) 
1.69159e-11

>  <r_epik_State_Penalty>  (267) 
-0

>  <r_epik_Charging_Adjusted_Penalty>  (267) 
0

>  <i_epik_Tot_Q>  (267) 
0

>  <i_epik_Tot_abs_Q>  (267) 
0

>  <s_epik_Chemistry_Notes>  (267) 
This compound contains an acetal/aminal-like group ( X-CH(R)-Y where X, Y are N, S, or O) that may be acid/base labile, releasing an aldehyde.

>  <s_lp_Force_Field>  (267) 
OPLS3e

>  <r_lp_Energy>  (267) 
34.7496

>  <b_lp_Chiralities_Consistent>  (267) 
1

>  <s_lp_Variant>  (267) 
89:0-1

>  <s_i_glide_gridfile>  (267) 
pfpi4k_grid

>  <i_i_glide_lignum>  (267) 
13

>  <i_i_glide_rotatable_bonds>  (267) 
8

>  <r_i_docking_score>  (267) 
-1.34661

>  <r_i_glide_ligand_efficiency>  (267) 
-0.0498745

>  <r_i_glide_ligand_efficiency_sa>  (267) 
-0.149623

>  <r_i_glide_ligand_efficiency_ln>  (267) 
-0.313469

>  <r_i_glide_gscore>  (267) 
-1.34661

>  <r_i_glide_lipo>  (267) 
-0.0972697

>  <r_i_glide_hbond>  (267) 
-0.0167433

>  <r_i_glide_metal>  (267) 
-0

>  <r_i_glide_rewards>  (267) 
-0.800904

>  <r_i_glide_evdw>  (267) 
-23.3352

>  <r_i_glide_ecoul>  (267) 
-0.94379

>  <r_i_glide_erotb>  (267) 
0.929107

>  <r_i_glide_esite>  (267) 
-0.0524757

>  <r_i_glide_emodel>  (267) 
-25.9588

>  <r_i_glide_energy>  (267) 
-24.2789

>  <r_i_glide_einternal>  (267) 
0.711206

>  <r_i_glide_intrahb_reward>  (267) 
-0

>  <i_i_glide_confnum>  (267) 
5

>  <i_i_glide_posenum>  (267) 
1

>  <r_i_glide_eff_state_penalty>  (267) 
0

>  <ligand_id>  (267) 
89

>  <original_smiles>  (267) 
CCCCCCCOCC1COC2OC3(C)CCC4C(C)CCC1C24OO3

>  <smiles>  (267) 
[H]C([H])([H])C([H])([H])C([H])([H])C([H])([H])C([H])([H])C([H])([H])C([H])([H])OC([H])([H])C1([H])C([H])([H])OC2([H])OC3(C([H])([H])[H])OOC24C1([H])C([H])([H])C([H])([H])C([H])(C([H])([H])[H])C4([H])C([H])([H])C3([H])[H]

$$$$
90:0:0
     RDKit          3D

 16 17  0  0  1  0  0  0  0  0999 V2000
   -5.3940   -8.5840   -6.0728 C   0  0  0  0  0  0  0  0  0  0  0  0
   -4.6844   -7.8269   -5.1210 C   0  0  0  0  0  0  0  0  0  0  0  0
   -5.0660   -6.5966   -4.7204 N   0  0  0  0  0  0  0  0  0  0  0  0
   -6.1968   -6.0690   -5.2404 C   0  0  0  0  0  0  0  0  0  0  0  0
   -6.6403   -4.7957   -4.8500 C   0  0  0  0  0  0  0  0  0  0  0  0
   -7.8161   -4.2697   -5.4156 C   0  0  0  0  0  0  0  0  0  0  0  0
   -8.5468   -4.9214   -6.3393 N   0  0  0  0  0  0  0  0  0  0  0  0
   -8.1303   -6.1431   -6.7202 C   0  0  0  0  0  0  0  0  0  0  0  0
   -6.9734   -6.7595   -6.2046 C   0  0  0  0  0  0  0  0  0  0  0  0
   -6.5670   -8.0394   -6.6288 C   0  0  0  0  0  0  0  0  0  0  0  0
   -5.0436   -9.5624   -6.3640 H   0  0  0  0  0  0  0  0  0  0  0  0
   -3.7833   -8.2192   -4.6774 H   0  0  0  0  0  0  0  0  0  0  0  0
   -6.0839   -4.2220   -4.1242 H   0  0  0  0  0  0  0  0  0  0  0  0
   -8.1749   -3.2943   -5.1231 H   0  0  0  0  0  0  0  0  0  0  0  0
   -8.7449   -6.6415   -7.4541 H   0  0  0  0  0  0  0  0  0  0  0  0
   -7.1365   -8.5913   -7.3628 H   0  0  0  0  0  0  0  0  0  0  0  0
  1 10  2  0
  1  2  1  0
  1 11  1  0
  2  3  2  0
  2 12  1  0
  3  4  1  0
  4  9  2  0
  4  5  1  0
  5  6  2  0
  5 13  1  0
  6  7  1  0
  6 14  1  0
  7  8  2  0
  8  9  1  0
  8 15  1  0
  9 10  1  0
 10 16  1  0
M  END
>  <i_m_ct_stereo_status>  (268) 
1

>  <s_m_source_file>  (268) 
/var/tmp/pbs.5076255.sched01/tmpgyl_4d9e/126kfdajayx.sdf

>  <i_m_source_file_index>  (268) 
14

>  <i_lp_mmshare_version>  (268) 
48012

>  <i_f3d_flags>  (268) 
0

>  <s_epik_input>  (268) 
bjFbY0hdW2NIXVtjSF1jKGMxMilbY0hdbltjSF1bY0hdMg==

>  <s_epik_cmdline>  (268) 
J2VwaWtfcHl0aG9uJywgJy1waHQnLCAnMi4wJywgJy1waCcsICc3LjAnLCAnLXRuJywgJzgnLCAnLW1hJywgJzIwMCcsICctaW1hZScsICc8aW5maWxlLm1hZT4nLCAnLW9tYWUnLCAnPG91dGZpbGUubWFlPic=

>  <r_lp_tautomer_probability>  (268) 
1

>  <r_epik_Ionization_Penalty>  (268) 
0.000235759

>  <r_epik_Ionization_Penalty_Charging>  (268) 
0

>  <r_epik_Ionization_Penalty_Neutral>  (268) 
0.000235759

>  <r_epik_State_Penalty>  (268) 
-0

>  <r_epik_Charging_Adjusted_Penalty>  (268) 
0

>  <i_epik_Tot_Q>  (268) 
0

>  <i_epik_Tot_abs_Q>  (268) 
0

>  <s_lp_Force_Field>  (268) 
OPLS3e

>  <r_lp_Energy>  (268) 
20.3575

>  <b_lp_Chiralities_Consistent>  (268) 
1

>  <s_lp_Variant>  (268) 
90:0-1

>  <s_i_glide_gridfile>  (268) 
pfpi4k_grid

>  <i_i_glide_lignum>  (268) 
14

>  <i_i_glide_rotatable_bonds>  (268) 
0

>  <r_i_docking_score>  (268) 
-7.63154

>  <r_i_glide_ligand_efficiency>  (268) 
-0.763154

>  <r_i_glide_ligand_efficiency_sa>  (268) 
-1.64416

>  <r_i_glide_ligand_efficiency_ln>  (268) 
-2.31078

>  <r_i_glide_gscore>  (268) 
-7.63154

>  <r_i_glide_lipo>  (268) 
-2.12962

>  <r_i_glide_hbond>  (268) 
-0.256308

>  <r_i_glide_metal>  (268) 
-0

>  <r_i_glide_rewards>  (268) 
-3.73333

>  <r_i_glide_evdw>  (268) 
-20.3988

>  <r_i_glide_ecoul>  (268) 
-3.28223

>  <r_i_glide_erotb>  (268) 
0

>  <r_i_glide_esite>  (268) 
0

>  <r_i_glide_emodel>  (268) 
-34.4665

>  <r_i_glide_energy>  (268) 
-23.681

>  <r_i_glide_einternal>  (268) 
0

>  <r_i_glide_intrahb_reward>  (268) 
-0

>  <i_i_glide_confnum>  (268) 
1

>  <i_i_glide_posenum>  (268) 
3

>  <r_i_glide_eff_state_penalty>  (268) 
0

>  <ligand_id>  (268) 
90

>  <original_smiles>  (268) 
c1cnc2ccncc2c1

>  <smiles>  (268) 
[H]c1nc2c([H])c([H])nc([H])c2c([H])c1[H]

$$$$
90:0:1
     RDKit          3D

 16 17  0  0  1  0  0  0  0  0999 V2000
    1.1524  -11.0048    3.4604 C   0  0  0  0  0  0  0  0  0  0  0  0
    2.5136  -10.7496    3.2162 C   0  0  0  0  0  0  0  0  0  0  0  0
    2.9599   -9.6090    2.6501 N   0  0  0  0  0  0  0  0  0  0  0  0
    2.0593   -8.6732    2.2863 C   0  0  0  0  0  0  0  0  0  0  0  0
    2.4787   -7.4732    1.6883 C   0  0  0  0  0  0  0  0  0  0  0  0
    1.5242   -6.5085    1.3259 C   0  0  0  0  0  0  0  0  0  0  0  0
    0.1967   -6.6575    1.5229 N   0  0  0  0  0  0  0  0  0  0  0  0
   -0.2115   -7.8153    2.0904 C   0  0  0  0  0  0  0  0  0  0  0  0
    0.6702   -8.8380    2.4946 C   0  0  0  0  0  0  0  0  0  0  0  0
    0.2087  -10.0290    3.0935 C   0  0  0  0  0  0  0  0  0  0  0  0
    0.8437  -11.9321    3.9227 H   0  0  0  0  0  0  0  0  0  0  0  0
    3.2628  -11.4785    3.4860 H   0  0  0  0  0  0  0  0  0  0  0  0
    3.5282   -7.3011    1.5128 H   0  0  0  0  0  0  0  0  0  0  0  0
    1.8401   -5.5841    0.8647 H   0  0  0  0  0  0  0  0  0  0  0  0
   -1.2757   -7.9193    2.2332 H   0  0  0  0  0  0  0  0  0  0  0  0
   -0.8437  -10.2012    3.2718 H   0  0  0  0  0  0  0  0  0  0  0  0
  1 10  2  0
  1  2  1  0
  1 11  1  0
  2  3  2  0
  2 12  1  0
  3  4  1  0
  4  9  2  0
  4  5  1  0
  5  6  2  0
  5 13  1  0
  6  7  1  0
  6 14  1  0
  7  8  2  0
  8  9  1  0
  8 15  1  0
  9 10  1  0
 10 16  1  0
M  END
>  <i_m_ct_stereo_status>  (269) 
1

>  <s_m_source_file>  (269) 
/var/tmp/pbs.5076255.sched01/tmpgyl_4d9e/126kfdajayx.sdf

>  <i_m_source_file_index>  (269) 
14

>  <i_lp_mmshare_version>  (269) 
48012

>  <i_f3d_flags>  (269) 
0

>  <s_epik_input>  (269) 
bjFbY0hdW2NIXVtjSF1jKGMxMilbY0hdbltjSF1bY0hdMg==

>  <s_epik_cmdline>  (269) 
J2VwaWtfcHl0aG9uJywgJy1waHQnLCAnMi4wJywgJy1waCcsICc3LjAnLCAnLXRuJywgJzgnLCAnLW1hJywgJzIwMCcsICctaW1hZScsICc8aW5maWxlLm1hZT4nLCAnLW9tYWUnLCAnPG91dGZpbGUubWFlPic=

>  <r_lp_tautomer_probability>  (269) 
1

>  <r_epik_Ionization_Penalty>  (269) 
0.000235759

>  <r_epik_Ionization_Penalty_Charging>  (269) 
0

>  <r_epik_Ionization_Penalty_Neutral>  (269) 
0.000235759

>  <r_epik_State_Penalty>  (269) 
-0

>  <r_epik_Charging_Adjusted_Penalty>  (269) 
0

>  <i_epik_Tot_Q>  (269) 
0

>  <i_epik_Tot_abs_Q>  (269) 
0

>  <s_lp_Force_Field>  (269) 
OPLS3e

>  <r_lp_Energy>  (269) 
20.3575

>  <b_lp_Chiralities_Consistent>  (269) 
1

>  <s_lp_Variant>  (269) 
90:0-1

>  <s_i_glide_gridfile>  (269) 
pfpi4k_grid

>  <i_i_glide_lignum>  (269) 
14

>  <i_i_glide_rotatable_bonds>  (269) 
0

>  <r_i_docking_score>  (269) 
-3.82223

>  <r_i_glide_ligand_efficiency>  (269) 
-0.382223

>  <r_i_glide_ligand_efficiency_sa>  (269) 
-0.823475

>  <r_i_glide_ligand_efficiency_ln>  (269) 
-1.15735

>  <r_i_glide_gscore>  (269) 
-3.82223

>  <r_i_glide_lipo>  (269) 
-0.214218

>  <r_i_glide_hbond>  (269) 
-0.126049

>  <r_i_glide_metal>  (269) 
-0

>  <r_i_glide_rewards>  (269) 
-2.25

>  <r_i_glide_evdw>  (269) 
-15.2945

>  <r_i_glide_ecoul>  (269) 
-3.11494

>  <r_i_glide_erotb>  (269) 
0

>  <r_i_glide_esite>  (269) 
0

>  <r_i_glide_emodel>  (269) 
-23.8105

>  <r_i_glide_energy>  (269) 
-18.4095

>  <r_i_glide_einternal>  (269) 
0

>  <r_i_glide_intrahb_reward>  (269) 
-0

>  <i_i_glide_confnum>  (269) 
1

>  <i_i_glide_posenum>  (269) 
16

>  <r_i_glide_eff_state_penalty>  (269) 
0

>  <ligand_id>  (269) 
90

>  <original_smiles>  (269) 
c1cnc2ccncc2c1

>  <smiles>  (269) 
[H]c1nc2c([H])c([H])nc([H])c2c([H])c1[H]

$$$$
90:0:2
     RDKit          3D

 16 17  0  0  1  0  0  0  0  0999 V2000
   -0.5086   -9.1482    2.5767 C   0  0  0  0  0  0  0  0  0  0  0  0
   -0.5867   -7.8471    2.0521 C   0  0  0  0  0  0  0  0  0  0  0  0
   -0.3780   -6.7318    2.7838 N   0  0  0  0  0  0  0  0  0  0  0  0
   -0.0498   -6.8848    4.0891 C   0  0  0  0  0  0  0  0  0  0  0  0
    0.1867   -5.7599    4.8956 C   0  0  0  0  0  0  0  0  0  0  0  0
    0.5135   -5.9430    6.2499 C   0  0  0  0  0  0  0  0  0  0  0  0
    0.6094   -7.1527    6.8327 N   0  0  0  0  0  0  0  0  0  0  0  0
    0.3902   -8.2391    6.0663 C   0  0  0  0  0  0  0  0  0  0  0  0
    0.0577   -8.1556    4.7013 C   0  0  0  0  0  0  0  0  0  0  0  0
   -0.1767   -9.3095    3.9315 C   0  0  0  0  0  0  0  0  0  0  0  0
   -0.6929  -10.0080    1.9493 H   0  0  0  0  0  0  0  0  0  0  0  0
   -0.8322   -7.7025    1.0096 H   0  0  0  0  0  0  0  0  0  0  0  0
    0.1239   -4.7674    4.4779 H   0  0  0  0  0  0  0  0  0  0  0  0
    0.6989   -5.0901    6.8850 H   0  0  0  0  0  0  0  0  0  0  0  0
    0.4727   -9.1944    6.5638 H   0  0  0  0  0  0  0  0  0  0  0  0
   -0.1168  -10.2970    4.3679 H   0  0  0  0  0  0  0  0  0  0  0  0
  1 10  2  0
  1  2  1  0
  1 11  1  0
  2  3  2  0
  2 12  1  0
  3  4  1  0
  4  9  2  0
  4  5  1  0
  5  6  2  0
  5 13  1  0
  6  7  1  0
  6 14  1  0
  7  8  2  0
  8  9  1  0
  8 15  1  0
  9 10  1  0
 10 16  1  0
M  END
>  <i_m_ct_stereo_status>  (270) 
1

>  <s_m_source_file>  (270) 
/var/tmp/pbs.5076255.sched01/tmpgyl_4d9e/126kfdajayx.sdf

>  <i_m_source_file_index>  (270) 
14

>  <i_lp_mmshare_version>  (270) 
48012

>  <i_f3d_flags>  (270) 
0

>  <s_epik_input>  (270) 
bjFbY0hdW2NIXVtjSF1jKGMxMilbY0hdbltjSF1bY0hdMg==

>  <s_epik_cmdline>  (270) 
J2VwaWtfcHl0aG9uJywgJy1waHQnLCAnMi4wJywgJy1waCcsICc3LjAnLCAnLXRuJywgJzgnLCAnLW1hJywgJzIwMCcsICctaW1hZScsICc8aW5maWxlLm1hZT4nLCAnLW9tYWUnLCAnPG91dGZpbGUubWFlPic=

>  <r_lp_tautomer_probability>  (270) 
1

>  <r_epik_Ionization_Penalty>  (270) 
0.000235759

>  <r_epik_Ionization_Penalty_Charging>  (270) 
0

>  <r_epik_Ionization_Penalty_Neutral>  (270) 
0.000235759

>  <r_epik_State_Penalty>  (270) 
-0

>  <r_epik_Charging_Adjusted_Penalty>  (270) 
0

>  <i_epik_Tot_Q>  (270) 
0

>  <i_epik_Tot_abs_Q>  (270) 
0

>  <s_lp_Force_Field>  (270) 
OPLS3e

>  <r_lp_Energy>  (270) 
20.3575

>  <b_lp_Chiralities_Consistent>  (270) 
1

>  <s_lp_Variant>  (270) 
90:0-1

>  <s_i_glide_gridfile>  (270) 
pfpi4k_grid

>  <i_i_glide_lignum>  (270) 
14

>  <i_i_glide_rotatable_bonds>  (270) 
0

>  <r_i_docking_score>  (270) 
-3.72295

>  <r_i_glide_ligand_efficiency>  (270) 
-0.372295

>  <r_i_glide_ligand_efficiency_sa>  (270) 
-0.802085

>  <r_i_glide_ligand_efficiency_ln>  (270) 
-1.12728

>  <r_i_glide_gscore>  (270) 
-3.72295

>  <r_i_glide_lipo>  (270) 
-0.0121132

>  <r_i_glide_hbond>  (270) 
-0.16

>  <r_i_glide_metal>  (270) 
-0

>  <r_i_glide_rewards>  (270) 
-2.25

>  <r_i_glide_evdw>  (270) 
-10.7624

>  <r_i_glide_ecoul>  (270) 
-5.08477

>  <r_i_glide_erotb>  (270) 
0

>  <r_i_glide_esite>  (270) 
0

>  <r_i_glide_emodel>  (270) 
-21.1081

>  <r_i_glide_energy>  (270) 
-15.8472

>  <r_i_glide_einternal>  (270) 
0

>  <r_i_glide_intrahb_reward>  (270) 
-0

>  <i_i_glide_confnum>  (270) 
2

>  <i_i_glide_posenum>  (270) 
28

>  <r_i_glide_eff_state_penalty>  (270) 
0

>  <ligand_id>  (270) 
90

>  <original_smiles>  (270) 
c1cnc2ccncc2c1

>  <smiles>  (270) 
[H]c1nc2c([H])c([H])nc([H])c2c([H])c1[H]

$$$$
91:0:0
     RDKit          3D

 24 25  0  0  1  0  0  0  0  0999 V2000
    3.5029   -0.5235   -3.7329 C   0  0  0  0  0  0  0  0  0  0  0  0
    3.5147   -2.3294   -3.7403 S   0  0  0  0  0  0  0  0  0  0  0  0
    3.6623   -2.8030   -2.0453 C   0  0  0  0  0  0  0  0  0  0  0  0
    4.8539   -2.5405   -1.3329 C   0  0  0  0  0  0  0  0  0  0  0  0
    4.8549   -2.9949   -0.0051 C   0  0  0  0  0  0  0  0  0  0  0  0
    3.7346   -3.6337    0.4852 C   0  0  0  0  0  0  0  0  0  0  0  0
    2.6179   -3.8778   -0.2331 N   0  0  0  0  0  0  0  0  0  0  0  0
    2.5906   -3.4544   -1.5080 N   0  0  0  0  0  0  0  0  0  0  0  0
    3.8390   -4.0161    1.7905 O   0  0  0  0  0  0  0  0  0  0  0  0
    5.0626   -3.4406    2.2833 C   0  0  0  0  0  0  0  0  0  0  0  0
    5.9076   -2.9633    1.0623 C   0  0  1  0  0  0  0  0  0  0  0  0
    7.1181   -3.8863    0.7605 C   0  0  0  0  0  0  0  0  0  0  0  0
    8.1502   -3.2963   -0.2102 C   0  0  0  0  0  0  0  0  0  0  0  0
    9.2453   -3.8988   -0.2779 O   0  0  0  0  0  0  0  0  0  0  0  0
    7.8612   -2.2550   -0.8447 O   0  0  0  0  0  0  0  0  0  0  0  0
    3.4707   -0.1506   -4.7569 H   0  0  0  0  0  0  0  0  0  0  0  0
    4.3859   -0.1146   -3.2400 H   0  0  0  0  0  0  0  0  0  0  0  0
    2.6171   -0.1660   -3.2068 H   0  0  0  0  0  0  0  0  0  0  0  0
    5.6968   -2.0434   -1.7893 H   0  0  0  0  0  0  0  0  0  0  0  0
    4.7807   -2.5866    2.8983 H   0  0  0  0  0  0  0  0  0  0  0  0
    5.6065   -4.1288    2.9346 H   0  0  0  0  0  0  0  0  0  0  0  0
    6.2353   -1.9394    1.2359 H   0  0  0  0  0  0  0  0  0  0  0  0
    7.6646   -4.0867    1.6801 H   0  0  0  0  0  0  0  0  0  0  0  0
    6.7769   -4.8491    0.3789 H   0  0  0  0  0  0  0  0  0  0  0  0
  1  2  1  0
  1 16  1  0
  1 17  1  0
  1 18  1  0
  2  3  1  0
  3  8  2  0
  3  4  1  0
  4  5  2  0
  4 19  1  0
  5 11  1  0
  5  6  1  0
  6  7  2  0
  6  9  1  0
  7  8  1  0
  9 10  1  0
 10 11  1  0
 10 20  1  0
 10 21  1  0
 11 12  1  0
 11 22  1  1
 12 13  1  0
 12 23  1  0
 12 24  1  0
 13 14  2  0
 13 15  1  0
M  CHG  1  15  -1
M  END
>  <i_m_ct_stereo_status>  (271) 
1

>  <s_m_source_file>  (271) 
/var/tmp/pbs.5076255.sched01/tmpgyl_4d9e/126kfdajayx.sdf

>  <i_m_source_file_index>  (271) 
15

>  <i_lp_mmshare_version>  (271) 
48012

>  <i_f3d_flags>  (271) 
0

>  <s_epik_input>  (271) 
W0NIM11TYyhbY0hdMSlubmMoYzEyKU9bQ0gyXVtDQEhdMltDSDJdQyg9TylbT0hd

>  <s_epik_cmdline>  (271) 
J2VwaWtfcHl0aG9uJywgJy1waHQnLCAnMi4wJywgJy1waCcsICc3LjAnLCAnLXRuJywgJzgnLCAnLW1hJywgJzIwMCcsICctaW1hZScsICc8aW5maWxlLm1hZT4nLCAnLW9tYWUnLCAnPG91dGZpbGUubWFlPic=

>  <r_lp_tautomer_probability>  (271) 
1

>  <r_epik_Ionization_Penalty>  (271) 
0.000434781

>  <r_epik_Ionization_Penalty_Charging>  (271) 
0.000428769

>  <r_epik_Ionization_Penalty_Neutral>  (271) 
6.01207e-06

>  <r_epik_State_Penalty>  (271) 
0.000264017

>  <r_epik_Charging_Adjusted_Penalty>  (271) 
0.000692786

>  <i_epik_Tot_Q>  (271) 
-1

>  <i_epik_Tot_abs_Q>  (271) 
1

>  <s_lp_Force_Field>  (271) 
OPLS3e

>  <r_lp_Energy>  (271) 
12.1764

>  <b_lp_Chiralities_Consistent>  (271) 
1

>  <s_lp_Variant>  (271) 
91:0-1

>  <s_i_glide_gridfile>  (271) 
pfpi4k_grid

>  <i_i_glide_lignum>  (271) 
15

>  <i_i_glide_rotatable_bonds>  (271) 
3

>  <r_i_docking_score>  (271) 
-4.31695

>  <r_i_glide_ligand_efficiency>  (271) 
-0.287797

>  <r_i_glide_ligand_efficiency_sa>  (271) 
-0.709768

>  <r_i_glide_ligand_efficiency_ln>  (271) 
-1.16421

>  <r_i_glide_gscore>  (271) 
-4.31695

>  <r_i_glide_lipo>  (271) 
-0.687588

>  <r_i_glide_hbond>  (271) 
-0.3756

>  <r_i_glide_metal>  (271) 
-0

>  <r_i_glide_rewards>  (271) 
-2.1626

>  <r_i_glide_evdw>  (271) 
-20.9818

>  <r_i_glide_ecoul>  (271) 
-2.24553

>  <r_i_glide_erotb>  (271) 
0.334425

>  <r_i_glide_esite>  (271) 
-0.0396697

>  <r_i_glide_emodel>  (271) 
-30.4108

>  <r_i_glide_energy>  (271) 
-23.2273

>  <r_i_glide_einternal>  (271) 
3.98158

>  <r_i_glide_intrahb_reward>  (271) 
-0

>  <i_i_glide_confnum>  (271) 
6

>  <i_i_glide_posenum>  (271) 
6

>  <r_i_glide_eff_state_penalty>  (271) 
0

>  <ligand_id>  (271) 
91

>  <original_smiles>  (271) 
CSc1cc2c(nn1)OCC2CC(=O)O

>  <smiles>  (271) 
[H]c1c(SC([H])([H])[H])nnc2c1C([H])(C([H])([H])C(=O)[O-])C([H])([H])O2

$$$$
91:0:1
     RDKit          3D

 24 25  0  0  1  0  0  0  0  0999 V2000
    3.3990    0.3898   -4.2430 C   0  0  0  0  0  0  0  0  0  0  0  0
    3.8154   -1.3690   -4.3083 S   0  0  0  0  0  0  0  0  0  0  0  0
    4.1707   -1.8960   -2.6603 C   0  0  0  0  0  0  0  0  0  0  0  0
    3.6874   -3.1342   -2.1870 C   0  0  0  0  0  0  0  0  0  0  0  0
    4.0683   -3.4480   -0.8772 C   0  0  0  0  0  0  0  0  0  0  0  0
    4.8703   -2.5762   -0.1746 C   0  0  0  0  0  0  0  0  0  0  0  0
    5.3367   -1.4110   -0.6726 N   0  0  0  0  0  0  0  0  0  0  0  0
    4.9720   -1.0711   -1.9260 N   0  0  0  0  0  0  0  0  0  0  0  0
    5.2009   -3.0238    1.0732 O   0  0  0  0  0  0  0  0  0  0  0  0
    4.7131   -4.3807    1.1624 C   0  0  0  0  0  0  0  0  0  0  0  0
    3.7620   -4.6494   -0.0454 C   0  0  1  0  0  0  0  0  0  0  0  0
    2.2628   -4.7123    0.3119 C   0  0  0  0  0  0  0  0  0  0  0  0
    1.8258   -6.0234    0.9722 C   0  0  0  0  0  0  0  0  0  0  0  0
    0.5946   -6.2558    0.9714 O   0  0  0  0  0  0  0  0  0  0  0  0
    2.7059   -6.7598    1.4654 O   0  0  0  0  0  0  0  0  0  0  0  0
    3.1416    0.7482   -5.2392 H   0  0  0  0  0  0  0  0  0  0  0  0
    4.2107    0.9994   -3.8441 H   0  0  0  0  0  0  0  0  0  0  0  0
    2.5260    0.5153   -3.6081 H   0  0  0  0  0  0  0  0  0  0  0  0
    3.0929   -3.8053   -2.7913 H   0  0  0  0  0  0  0  0  0  0  0  0
    5.5869   -5.0298    1.0909 H   0  0  0  0  0  0  0  0  0  0  0  0
    4.2376   -4.5944    2.1211 H   0  0  0  0  0  0  0  0  0  0  0  0
    4.0616   -5.5520   -0.5752 H   0  0  0  0  0  0  0  0  0  0  0  0
    2.0118   -3.8895    0.9792 H   0  0  0  0  0  0  0  0  0  0  0  0
    1.6675   -4.6009   -0.5952 H   0  0  0  0  0  0  0  0  0  0  0  0
  1  2  1  0
  1 16  1  0
  1 17  1  0
  1 18  1  0
  2  3  1  0
  3  8  2  0
  3  4  1  0
  4  5  2  0
  4 19  1  0
  5 11  1  0
  5  6  1  0
  6  7  2  0
  6  9  1  0
  7  8  1  0
  9 10  1  0
 10 11  1  0
 10 20  1  0
 10 21  1  0
 11 12  1  0
 11 22  1  6
 12 13  1  0
 12 23  1  0
 12 24  1  0
 13 14  2  0
 13 15  1  0
M  CHG  1  15  -1
M  END
>  <i_m_ct_stereo_status>  (272) 
1

>  <s_m_source_file>  (272) 
/var/tmp/pbs.5076255.sched01/tmpgyl_4d9e/126kfdajayx.sdf

>  <i_m_source_file_index>  (272) 
15

>  <i_lp_mmshare_version>  (272) 
48012

>  <i_f3d_flags>  (272) 
0

>  <s_epik_input>  (272) 
W0NIM11TYyhbY0hdMSlubmMoYzEyKU9bQ0gyXVtDQEhdMltDSDJdQyg9TylbT0hd

>  <s_epik_cmdline>  (272) 
J2VwaWtfcHl0aG9uJywgJy1waHQnLCAnMi4wJywgJy1waCcsICc3LjAnLCAnLXRuJywgJzgnLCAnLW1hJywgJzIwMCcsICctaW1hZScsICc8aW5maWxlLm1hZT4nLCAnLW9tYWUnLCAnPG91dGZpbGUubWFlPic=

>  <r_lp_tautomer_probability>  (272) 
1

>  <r_epik_Ionization_Penalty>  (272) 
0.000434781

>  <r_epik_Ionization_Penalty_Charging>  (272) 
0.000428769

>  <r_epik_Ionization_Penalty_Neutral>  (272) 
6.01207e-06

>  <r_epik_State_Penalty>  (272) 
0.000264017

>  <r_epik_Charging_Adjusted_Penalty>  (272) 
0.000692786

>  <i_epik_Tot_Q>  (272) 
-1

>  <i_epik_Tot_abs_Q>  (272) 
1

>  <s_lp_Force_Field>  (272) 
OPLS3e

>  <r_lp_Energy>  (272) 
12.1764

>  <b_lp_Chiralities_Consistent>  (272) 
1

>  <s_lp_Variant>  (272) 
91:0-1

>  <s_i_glide_gridfile>  (272) 
pfpi4k_grid

>  <i_i_glide_lignum>  (272) 
15

>  <i_i_glide_rotatable_bonds>  (272) 
3

>  <r_i_docking_score>  (272) 
-3.74916

>  <r_i_glide_ligand_efficiency>  (272) 
-0.249944

>  <r_i_glide_ligand_efficiency_sa>  (272) 
-0.616415

>  <r_i_glide_ligand_efficiency_ln>  (272) 
-1.01109

>  <r_i_glide_gscore>  (272) 
-3.74916

>  <r_i_glide_lipo>  (272) 
-0.0478247

>  <r_i_glide_hbond>  (272) 
-0.2

>  <r_i_glide_metal>  (272) 
-0

>  <r_i_glide_rewards>  (272) 
-1.87333

>  <r_i_glide_evdw>  (272) 
-20.2514

>  <r_i_glide_ecoul>  (272) 
-5.3637

>  <r_i_glide_erotb>  (272) 
0.334425

>  <r_i_glide_esite>  (272) 
-0.145309

>  <r_i_glide_emodel>  (272) 
-32.1587

>  <r_i_glide_energy>  (272) 
-25.6151

>  <r_i_glide_einternal>  (272) 
2.98521

>  <r_i_glide_intrahb_reward>  (272) 
-0

>  <i_i_glide_confnum>  (272) 
2

>  <i_i_glide_posenum>  (272) 
15

>  <r_i_glide_eff_state_penalty>  (272) 
0

>  <ligand_id>  (272) 
91

>  <original_smiles>  (272) 
CSc1cc2c(nn1)OCC2CC(=O)O

>  <smiles>  (272) 
[H]c1c(SC([H])([H])[H])nnc2c1C([H])(C([H])([H])C(=O)[O-])C([H])([H])O2

$$$$
91:0:2
     RDKit          3D

 24 25  0  0  1  0  0  0  0  0999 V2000
    3.5367    0.3221   -4.0869 C   0  0  0  0  0  0  0  0  0  0  0  0
    3.7435   -1.4590   -4.3180 S   0  0  0  0  0  0  0  0  0  0  0  0
    3.4157   -2.1927   -2.7711 C   0  0  0  0  0  0  0  0  0  0  0  0
    4.3164   -1.9662   -1.7148 C   0  0  0  0  0  0  0  0  0  0  0  0
    4.0289   -2.6796   -0.5426 C   0  0  0  0  0  0  0  0  0  0  0  0
    2.8812   -3.4544   -0.4902 C   0  0  0  0  0  0  0  0  0  0  0  0
    2.0251   -3.6158   -1.5177 N   0  0  0  0  0  0  0  0  0  0  0  0
    2.3182   -3.0050   -2.6866 N   0  0  0  0  0  0  0  0  0  0  0  0
    2.6686   -4.0449    0.7157 O   0  0  0  0  0  0  0  0  0  0  0  0
    3.6541   -3.5028    1.6156 C   0  0  0  0  0  0  0  0  0  0  0  0
    4.7593   -2.7738    0.7720 C   0  0  1  0  0  0  0  0  0  0  0  0
    6.0928   -3.5710    0.7171 C   0  0  0  0  0  0  0  0  0  0  0  0
    7.3277   -2.8411    0.1382 C   0  0  0  0  0  0  0  0  0  0  0  0
    8.4543   -3.2869    0.4953 O   0  0  0  0  0  0  0  0  0  0  0  0
    7.1559   -1.8827   -0.6396 O   0  0  0  0  0  0  0  0  0  0  0  0
    3.7548    0.8571   -5.0101 H   0  0  0  0  0  0  0  0  0  0  0  0
    4.1848    0.7074   -3.2978 H   0  0  0  0  0  0  0  0  0  0  0  0
    2.4995    0.5184   -3.8252 H   0  0  0  0  0  0  0  0  0  0  0  0
    5.1596   -1.3125   -1.8473 H   0  0  0  0  0  0  0  0  0  0  0  0
    3.1233   -2.7874    2.2449 H   0  0  0  0  0  0  0  0  0  0  0  0
    4.0561   -4.2593    2.2882 H   0  0  0  0  0  0  0  0  0  0  0  0
    4.9202   -1.7826    1.1827 H   0  0  0  0  0  0  0  0  0  0  0  0
    6.3773   -3.8511    1.7287 H   0  0  0  0  0  0  0  0  0  0  0  0
    5.9514   -4.4993    0.1666 H   0  0  0  0  0  0  0  0  0  0  0  0
  1  2  1  0
  1 16  1  0
  1 17  1  0
  1 18  1  0
  2  3  1  0
  3  8  2  0
  3  4  1  0
  4  5  2  0
  4 19  1  0
  5 11  1  0
  5  6  1  0
  6  7  2  0
  6  9  1  0
  7  8  1  0
  9 10  1  0
 10 11  1  0
 10 20  1  0
 10 21  1  0
 11 12  1  0
 11 22  1  1
 12 13  1  0
 12 23  1  0
 12 24  1  0
 13 14  2  0
 13 15  1  0
M  CHG  1  15  -1
M  END
>  <i_m_ct_stereo_status>  (273) 
1

>  <s_m_source_file>  (273) 
/var/tmp/pbs.5076255.sched01/tmpgyl_4d9e/126kfdajayx.sdf

>  <i_m_source_file_index>  (273) 
15

>  <i_lp_mmshare_version>  (273) 
48012

>  <i_f3d_flags>  (273) 
0

>  <s_epik_input>  (273) 
W0NIM11TYyhbY0hdMSlubmMoYzEyKU9bQ0gyXVtDQEhdMltDSDJdQyg9TylbT0hd

>  <s_epik_cmdline>  (273) 
J2VwaWtfcHl0aG9uJywgJy1waHQnLCAnMi4wJywgJy1waCcsICc3LjAnLCAnLXRuJywgJzgnLCAnLW1hJywgJzIwMCcsICctaW1hZScsICc8aW5maWxlLm1hZT4nLCAnLW9tYWUnLCAnPG91dGZpbGUubWFlPic=

>  <r_lp_tautomer_probability>  (273) 
1

>  <r_epik_Ionization_Penalty>  (273) 
0.000434781

>  <r_epik_Ionization_Penalty_Charging>  (273) 
0.000428769

>  <r_epik_Ionization_Penalty_Neutral>  (273) 
6.01207e-06

>  <r_epik_State_Penalty>  (273) 
0.000264017

>  <r_epik_Charging_Adjusted_Penalty>  (273) 
0.000692786

>  <i_epik_Tot_Q>  (273) 
-1

>  <i_epik_Tot_abs_Q>  (273) 
1

>  <s_lp_Force_Field>  (273) 
OPLS3e

>  <r_lp_Energy>  (273) 
12.1764

>  <b_lp_Chiralities_Consistent>  (273) 
1

>  <s_lp_Variant>  (273) 
91:0-1

>  <s_i_glide_gridfile>  (273) 
pfpi4k_grid

>  <i_i_glide_lignum>  (273) 
15

>  <i_i_glide_rotatable_bonds>  (273) 
3

>  <r_i_docking_score>  (273) 
-3.28397

>  <r_i_glide_ligand_efficiency>  (273) 
-0.218931

>  <r_i_glide_ligand_efficiency_sa>  (273) 
-0.539931

>  <r_i_glide_ligand_efficiency_ln>  (273) 
-0.885632

>  <r_i_glide_gscore>  (273) 
-3.28397

>  <r_i_glide_lipo>  (273) 
-0.108505

>  <r_i_glide_hbond>  (273) 
-0.2

>  <r_i_glide_metal>  (273) 
-0

>  <r_i_glide_rewards>  (273) 
-2.03715

>  <r_i_glide_evdw>  (273) 
-20.3566

>  <r_i_glide_ecoul>  (273) 
-1.69938

>  <r_i_glide_erotb>  (273) 
0.334425

>  <r_i_glide_esite>  (273) 
0

>  <r_i_glide_emodel>  (273) 
-26.9411

>  <r_i_glide_energy>  (273) 
-22.056

>  <r_i_glide_einternal>  (273) 
3.86285

>  <r_i_glide_intrahb_reward>  (273) 
-0

>  <i_i_glide_confnum>  (273) 
3

>  <i_i_glide_posenum>  (273) 
2

>  <r_i_glide_eff_state_penalty>  (273) 
0

>  <ligand_id>  (273) 
91

>  <original_smiles>  (273) 
CSc1cc2c(nn1)OCC2CC(=O)O

>  <smiles>  (273) 
[H]c1c(SC([H])([H])[H])nnc2c1C([H])(C([H])([H])C(=O)[O-])C([H])([H])O2

$$$$
92:0:0
     RDKit          3D

 75 79  0  0  1  0  0  0  0  0999 V2000
   -3.1623    3.2550    9.4476 C   0  0  0  0  0  0  0  0  0  0  0  0
   -2.2933    2.6330    8.3528 C   0  0  0  0  0  0  0  0  0  0  0  0
   -2.5821    1.5425    7.8677 O   0  0  0  0  0  0  0  0  0  0  0  0
   -1.2587    3.4048    7.9930 O   0  0  0  0  0  0  0  0  0  0  0  0
   -0.3756    2.9662    6.9639 C   0  0  2  0  0  0  0  0  0  0  0  0
    1.0106    2.8516    7.5682 C   0  0  0  0  0  0  0  0  0  0  0  0
    1.8789    2.0364    6.6091 C   0  0  1  0  0  0  0  0  0  0  0  0
    1.2863    0.7482    6.7496 O   0  0  0  0  0  0  0  0  0  0  0  0
    1.9674   -0.4985    6.9487 C   0  0  0  0  0  0  0  0  0  0  0  0
    3.3040   -0.4828    7.7391 C   0  0  0  0  0  0  0  0  0  0  0  0
    0.9789   -1.1544    7.9408 C   0  0  0  0  0  0  0  0  0  0  0  0
    1.9786   -1.2494    5.5755 C   0  0  1  0  0  0  0  0  0  0  0  0
    0.5475   -1.1746    5.0033 C   0  0  0  0  0  0  0  0  0  0  0  0
   -0.3159   -2.0080    5.2719 O   0  0  0  0  0  0  0  0  0  0  0  0
    0.2644   -0.0110    4.0657 C   0  0  0  0  0  0  0  0  0  0  0  0
    1.5356    0.4656    3.3021 C   0  0  2  0  0  0  0  0  0  0  0  0
    2.4799   -0.7698    3.0208 C   0  0  0  0  0  0  0  0  0  0  0  0
    1.8011   -2.0754    2.5081 C   0  0  0  0  0  0  0  0  0  0  0  0
    3.4854   -0.5110    1.8431 C   0  0  0  0  0  0  0  0  0  0  0  0
    3.0668   -0.8525    4.4806 C   0  0  2  0  0  0  0  0  0  0  0  0
    4.1327   -1.7798    4.5031 O   0  0  0  0  0  0  0  0  0  0  0  0
    3.5875    0.5958    4.6807 C   0  0  1  0  0  0  0  0  0  0  0  0
    4.8615    0.7837    4.0969 O   0  0  0  0  0  0  0  0  0  0  0  0
    2.4643    1.5077    4.0876 C   0  0  1  0  0  0  0  0  0  0  0  0
    3.0114    2.2469    3.0267 O   0  0  0  0  0  0  0  0  0  0  0  0
    1.9225    2.6190    5.1312 C   0  0  2  0  0  0  0  0  0  0  0  0
    2.8578    3.8815    5.2327 C   0  0  1  0  0  0  0  0  0  0  0  0
    4.2334    3.6011    5.2686 O   0  0  0  0  0  0  0  0  0  0  0  0
    2.4509    4.9325    4.1802 C   0  0  1  0  0  0  0  0  0  0  0  0
    3.3702    5.1007    3.1194 O   0  0  0  0  0  0  0  0  0  0  0  0
    1.0799    4.4561    3.6738 C   0  0  0  0  0  0  0  0  0  0  0  0
    0.6055    3.3349    4.6282 C   0  0  2  0  0  0  0  0  0  0  0  0
   -0.4081    3.8620    5.7146 C   0  0  0  0  0  0  0  0  0  0  0  0
   -1.8239    3.7518    5.1043 C   0  0  0  0  0  0  0  0  0  0  0  0
   -0.1813    5.3421    6.1431 C   0  0  0  0  0  0  0  0  0  0  0  0
   -2.5711    3.5869   10.3089 H   0  0  0  0  0  0  0  0  0  0  0  0
   -3.8987    2.5320    9.8055 H   0  0  0  0  0  0  0  0  0  0  0  0
   -3.7103    4.1093    9.0397 H   0  0  0  0  0  0  0  0  0  0  0  0
   -0.6526    1.9707    6.6275 H   0  0  0  0  0  0  0  0  0  0  0  0
    1.4295    3.8314    7.7971 H   0  0  0  0  0  0  0  0  0  0  0  0
    0.9414    2.3132    8.5146 H   0  0  0  0  0  0  0  0  0  0  0  0
    2.8729    2.0500    7.0496 H   0  0  0  0  0  0  0  0  0  0  0  0
    3.4382   -1.4380    8.2512 H   0  0  0  0  0  0  0  0  0  0  0  0
    3.3096    0.2962    8.5091 H   0  0  0  0  0  0  0  0  0  0  0  0
    4.2136   -0.3853    7.1510 H   0  0  0  0  0  0  0  0  0  0  0  0
    1.2096   -2.2106    8.0790 H   0  0  0  0  0  0  0  0  0  0  0  0
   -0.0578   -1.0660    7.6243 H   0  0  0  0  0  0  0  0  0  0  0  0
    1.0385   -0.6670    8.9163 H   0  0  0  0  0  0  0  0  0  0  0  0
    2.1671   -2.2971    5.7893 H   0  0  0  0  0  0  0  0  0  0  0  0
   -0.4757   -0.3481    3.3464 H   0  0  0  0  0  0  0  0  0  0  0  0
   -0.2023    0.7725    4.6464 H   0  0  0  0  0  0  0  0  0  0  0  0
    1.1953    0.8932    2.3512 H   0  0  0  0  0  0  0  0  0  0  0  0
    2.4151   -2.6124    1.7876 H   0  0  0  0  0  0  0  0  0  0  0  0
    0.8739   -1.8236    1.9969 H   0  0  0  0  0  0  0  0  0  0  0  0
    1.5940   -2.8072    3.2825 H   0  0  0  0  0  0  0  0  0  0  0  0
    4.2147   -1.3202    1.7830 H   0  0  0  0  0  0  0  0  0  0  0  0
    4.0495    0.4157    1.8582 H   0  0  0  0  0  0  0  0  0  0  0  0
    2.9384   -0.4922    0.8931 H   0  0  0  0  0  0  0  0  0  0  0  0
    4.7837   -1.4570    3.8896 H   0  0  0  0  0  0  0  0  0  0  0  0
    3.8524    0.8854    5.6792 H   0  0  0  0  0  0  0  0  0  0  0  0
    4.7016    1.4718    3.4564 H   0  0  0  0  0  0  0  0  0  0  0  0
    2.2783    2.6027    2.5414 H   0  0  0  0  0  0  0  0  0  0  0  0
    2.6883    4.3763    6.1818 H   0  0  0  0  0  0  0  0  0  0  0  0
    4.4764    3.2688    4.4140 H   0  0  0  0  0  0  0  0  0  0  0  0
    2.3591    5.9124    4.6434 H   0  0  0  0  0  0  0  0  0  0  0  0
    3.4542    4.2825    2.6393 H   0  0  0  0  0  0  0  0  0  0  0  0
    0.3524    5.2610    3.5304 H   0  0  0  0  0  0  0  0  0  0  0  0
    1.1912    4.0088    2.6844 H   0  0  0  0  0  0  0  0  0  0  0  0
    0.0356    2.6465    4.0099 H   0  0  0  0  0  0  0  0  0  0  0  0
   -1.8920    4.3273    4.1797 H   0  0  0  0  0  0  0  0  0  0  0  0
   -2.5729    4.1444    5.7962 H   0  0  0  0  0  0  0  0  0  0  0  0
   -2.0765    2.7087    4.8720 H   0  0  0  0  0  0  0  0  0  0  0  0
   -0.4312    6.0365    5.3435 H   0  0  0  0  0  0  0  0  0  0  0  0
    0.8446    5.5525    6.4595 H   0  0  0  0  0  0  0  0  0  0  0  0
   -0.8226    5.6131    6.9837 H   0  0  0  0  0  0  0  0  0  0  0  0
  1  2  1  0
  1 36  1  0
  1 37  1  0
  1 38  1  0
  2  3  2  0
  2  4  1  0
  4  5  1  0
  5 33  1  0
  5  6  1  0
  5 39  1  6
  6  7  1  0
  6 40  1  0
  6 41  1  0
  7 26  1  0
  7  8  1  0
  7 42  1  1
  8  9  1  0
  9 10  1  0
  9 11  1  0
  9 12  1  0
 10 43  1  0
 10 44  1  0
 10 45  1  0
 11 46  1  0
 11 47  1  0
 11 48  1  0
 12 20  1  0
 12 13  1  0
 12 49  1  1
 13 14  2  0
 13 15  1  0
 15 16  1  0
 15 50  1  0
 15 51  1  0
 16 24  1  0
 16 17  1  0
 16 52  1  6
 17 18  1  0
 17 19  1  0
 17 20  1  0
 18 53  1  0
 18 54  1  0
 18 55  1  0
 19 56  1  0
 19 57  1  0
 19 58  1  0
 20 21  1  6
 20 22  1  0
 21 59  1  0
 22 23  1  0
 22 24  1  0
 22 60  1  1
 23 61  1  0
 24 25  1  6
 26 24  1  6
 25 62  1  0
 26 32  1  0
 26 27  1  0
 27 28  1  0
 27 29  1  0
 27 63  1  1
 28 64  1  0
 29 30  1  0
 29 31  1  0
 29 65  1  1
 30 66  1  0
 31 32  1  0
 31 67  1  0
 31 68  1  0
 32 33  1  0
 32 69  1  6
 33 34  1  0
 33 35  1  0
 34 70  1  0
 34 71  1  0
 34 72  1  0
 35 73  1  0
 35 74  1  0
 35 75  1  0
M  END
>  <i_m_ct_stereo_status>  (274) 
1

>  <s_m_source_file>  (274) 
/var/tmp/pbs.5076255.sched01/tmpgyl_4d9e/126kfdajayx.sdf

>  <i_m_source_file_index>  (274) 
16

>  <i_lp_mmshare_version>  (274) 
48012

>  <i_f3d_flags>  (274) 
0

>  <s_epik_input>  (274) 
W09IXVtDQEhdMVtDQEBIXShbT0hdKVtDSDJdW0NAQEhdMkMoW0NIM10pKFtDSDNdKVtDQEhdKE9DKD1PKVtDSDNdKVtDSDJdW0NASF0oW0NAXTEyMylPQyhbQ0gzXSkoW0NIM10pW0NAQEhdNFtDQEBdNShbT0hdKUMoW0NIM10pKFtDSDNdKVtDQEBIXShbQ0gyXUM0PU8pW0NAXTMoW09IXSlbQ0BASF01W09IXQ==

>  <s_epik_cmdline>  (274) 
J2VwaWtfcHl0aG9uJywgJy1waHQnLCAnMi4wJywgJy1waCcsICc3LjAnLCAnLXRuJywgJzgnLCAnLW1hJywgJzIwMCcsICctaW1hZScsICc8aW5maWxlLm1hZT4nLCAnLW9tYWUnLCAnPG91dGZpbGUubWFlPic=

>  <r_lp_tautomer_probability>  (274) 
1

>  <r_epik_Ionization_Penalty>  (274) 
4.98302e-07

>  <r_epik_Ionization_Penalty_Charging>  (274) 
0

>  <r_epik_Ionization_Penalty_Neutral>  (274) 
4.98302e-07

>  <r_epik_State_Penalty>  (274) 
-0

>  <r_epik_Charging_Adjusted_Penalty>  (274) 
0

>  <i_epik_Tot_Q>  (274) 
0

>  <i_epik_Tot_abs_Q>  (274) 
0

>  <s_epik_Chemistry_Notes>  (274) 
This compound has an ester and may undergo hydrolysis at high or low pH.

>  <s_lp_Force_Field>  (274) 
OPLS3e

>  <r_lp_Energy>  (274) 
109.572

>  <b_lp_Chiralities_Consistent>  (274) 
1

>  <s_lp_Variant>  (274) 
92:0-1

>  <s_i_glide_gridfile>  (274) 
pfpi4k_grid

>  <i_i_glide_lignum>  (274) 
16

>  <i_i_glide_rotatable_bonds>  (274) 
7

>  <r_i_docking_score>  (274) 
-2.56512

>  <r_i_glide_ligand_efficiency>  (274) 
-0.0732892

>  <r_i_glide_ligand_efficiency_sa>  (274) 
-0.239734

>  <r_i_glide_ligand_efficiency_ln>  (274) 
-0.563102

>  <r_i_glide_gscore>  (274) 
-2.56512

>  <r_i_glide_lipo>  (274) 
-0.00283453

>  <r_i_glide_hbond>  (274) 
-0.0869209

>  <r_i_glide_metal>  (274) 
-0

>  <r_i_glide_rewards>  (274) 
-0.537588

>  <r_i_glide_evdw>  (274) 
-24.2678

>  <r_i_glide_ecoul>  (274) 
-5.33302

>  <r_i_glide_erotb>  (274) 
0.0826973

>  <r_i_glide_esite>  (274) 
-0.00713589

>  <r_i_glide_emodel>  (274) 
-38.5324

>  <r_i_glide_energy>  (274) 
-29.6008

>  <r_i_glide_einternal>  (274) 
1.75041

>  <r_i_glide_intrahb_reward>  (274) 
-0.5

>  <i_i_glide_confnum>  (274) 
2

>  <i_i_glide_posenum>  (274) 
18

>  <r_i_glide_eff_state_penalty>  (274) 
0

>  <ligand_id>  (274) 
92

>  <original_smiles>  (274) 
CC(=O)OC1CC2OC(C)(C)C3C(=O)CC4C(C)(C)C3(O)C(O)C4(O)C23C(O)C(O)CC3C1(C)C

>  <smiles>  (274) 
[H]OC1([H])C([H])([H])C2([H])C(C([H])([H])[H])(C([H])([H])[H])C([H])(OC(=O)C([H])([H])[H])C([H])([H])C3([H])OC(C([H])([H])[H])(C([H])([H])[H])C4([H])C(=O)C([H])([H])C5([H])C(O[H])(C([H])(O[H])C4(O[H])C5(C([H])([H])[H])C([H])([H])[H])C32C1([H])O[H]

$$$$
92:0:1
     RDKit          3D

 75 79  0  0  1  0  0  0  0  0999 V2000
   -2.4548    3.8991   10.5187 C   0  0  0  0  0  0  0  0  0  0  0  0
   -1.9426    3.1277    9.3072 C   0  0  0  0  0  0  0  0  0  0  0  0
   -2.5412    2.1429    8.8937 O   0  0  0  0  0  0  0  0  0  0  0  0
   -0.8423    3.6797    8.7525 O   0  0  0  0  0  0  0  0  0  0  0  0
   -0.2299    3.0807    7.6039 C   0  0  2  0  0  0  0  0  0  0  0  0
    1.2830    3.1136    7.7981 C   0  0  0  0  0  0  0  0  0  0  0  0
    1.9310    2.1482    6.8025 C   0  0  1  0  0  0  0  0  0  0  0  0
    1.4806    0.9054    7.3240 O   0  0  0  0  0  0  0  0  0  0  0  0
    2.2681   -0.2715    7.5671 C   0  0  0  0  0  0  0  0  0  0  0  0
    3.7650   -0.0929    7.9507 C   0  0  0  0  0  0  0  0  0  0  0  0
    1.6199   -0.7427    8.8946 C   0  0  0  0  0  0  0  0  0  0  0  0
    1.9781   -1.2718    6.3953 C   0  0  1  0  0  0  0  0  0  0  0  0
    0.4383   -1.3292    6.2367 C   0  0  0  0  0  0  0  0  0  0  0  0
   -0.2697   -2.1089    6.8696 O   0  0  0  0  0  0  0  0  0  0  0  0
   -0.1518   -0.3673    5.2091 C   0  0  0  0  0  0  0  0  0  0  0  0
    0.8373   -0.0348    4.0515 C   0  0  2  0  0  0  0  0  0  0  0  0
    1.7397   -1.2991    3.7536 C   0  0  0  0  0  0  0  0  0  0  0  0
    1.0210   -2.6906    3.7001 C   0  0  0  0  0  0  0  0  0  0  0  0
    2.3920   -1.2597    2.3265 C   0  0  0  0  0  0  0  0  0  0  0  0
    2.6979   -1.0824    4.9838 C   0  0  2  0  0  0  0  0  0  0  0  0
    3.7826   -1.9830    4.9166 O   0  0  0  0  0  0  0  0  0  0  0  0
    3.1655    0.3795    4.7475 C   0  0  1  0  0  0  0  0  0  0  0  0
    4.2529    0.4293    3.8350 O   0  0  0  0  0  0  0  0  0  0  0  0
    1.8742    1.1525    4.3242 C   0  0  1  0  0  0  0  0  0  0  0  0
    2.0973    1.6555    3.0204 O   0  0  0  0  0  0  0  0  0  0  0  0
    1.5566    2.4299    5.2799 C   0  0  2  0  0  0  0  0  0  0  0  0
    2.4090    3.6948    4.8883 C   0  0  1  0  0  0  0  0  0  0  0  0
    3.7614    3.4424    4.5610 O   0  0  0  0  0  0  0  0  0  0  0  0
    1.6557    4.5141    3.8120 C   0  0  1  0  0  0  0  0  0  0  0  0
    2.2261    4.4102    2.5160 O   0  0  0  0  0  0  0  0  0  0  0  0
    0.2317    3.9381    3.8060 C   0  0  0  0  0  0  0  0  0  0  0  0
    0.1082    3.0279    5.0491 C   0  0  2  0  0  0  0  0  0  0  0  0
   -0.6331    3.7421    6.2502 C   0  0  0  0  0  0  0  0  0  0  0  0
   -2.1500    3.5296    6.0399 C   0  0  0  0  0  0  0  0  0  0  0  0
   -0.3755    5.2746    6.3476 C   0  0  0  0  0  0  0  0  0  0  0  0
   -1.6694    4.0084   11.2651 H   0  0  0  0  0  0  0  0  0  0  0  0
   -3.2894    3.3662   10.9822 H   0  0  0  0  0  0  0  0  0  0  0  0
   -2.8063    4.8883   10.2233 H   0  0  0  0  0  0  0  0  0  0  0  0
   -0.5269    2.0298    7.5735 H   0  0  0  0  0  0  0  0  0  0  0  0
    1.6777    4.1228    7.7127 H   0  0  0  0  0  0  0  0  0  0  0  0
    1.5208    2.7913    8.8114 H   0  0  0  0  0  0  0  0  0  0  0  0
    3.0032    2.2574    6.9577 H   0  0  0  0  0  0  0  0  0  0  0  0
    4.0892   -0.9246    8.5794 H   0  0  0  0  0  0  0  0  0  0  0  0
    3.9247    0.8193    8.5316 H   0  0  0  0  0  0  0  0  0  0  0  0
    4.4747   -0.1058    7.1294 H   0  0  0  0  0  0  0  0  0  0  0  0
    1.9379   -1.7538    9.1573 H   0  0  0  0  0  0  0  0  0  0  0  0
    0.5283   -0.7319    8.8686 H   0  0  0  0  0  0  0  0  0  0  0  0
    1.9010   -0.0815    9.7182 H   0  0  0  0  0  0  0  0  0  0  0  0
    2.2650   -2.2614    6.7451 H   0  0  0  0  0  0  0  0  0  0  0  0
   -1.0382   -0.8489    4.7967 H   0  0  0  0  0  0  0  0  0  0  0  0
   -0.4946    0.5070    5.7492 H   0  0  0  0  0  0  0  0  0  0  0  0
    0.2181    0.1938    3.1782 H   0  0  0  0  0  0  0  0  0  0  0  0
    1.4572   -3.3503    2.9505 H   0  0  0  0  0  0  0  0  0  0  0  0
   -0.0301   -2.5804    3.4413 H   0  0  0  0  0  0  0  0  0  0  0  0
    1.0957   -3.2616    4.6225 H   0  0  0  0  0  0  0  0  0  0  0  0
    3.1351   -2.0534    2.2163 H   0  0  0  0  0  0  0  0  0  0  0  0
    2.8940   -0.3458    2.0262 H   0  0  0  0  0  0  0  0  0  0  0  0
    1.6270   -1.4122    1.5593 H   0  0  0  0  0  0  0  0  0  0  0  0
    4.2371   -1.8053    4.0924 H   0  0  0  0  0  0  0  0  0  0  0  0
    3.6481    0.8511    5.5826 H   0  0  0  0  0  0  0  0  0  0  0  0
    4.3143    1.3370    3.5481 H   0  0  0  0  0  0  0  0  0  0  0  0
    1.3117    2.0943    2.7110 H   0  0  0  0  0  0  0  0  0  0  0  0
    2.4820    4.3614    5.7449 H   0  0  0  0  0  0  0  0  0  0  0  0
    3.7770    3.2188    3.6281 H   0  0  0  0  0  0  0  0  0  0  0  0
    1.6352    5.5733    4.0867 H   0  0  0  0  0  0  0  0  0  0  0  0
    1.5362    4.5452    1.8637 H   0  0  0  0  0  0  0  0  0  0  0  0
   -0.5340    4.7096    3.7321 H   0  0  0  0  0  0  0  0  0  0  0  0
    0.0831    3.3378    2.9103 H   0  0  0  0  0  0  0  0  0  0  0  0
   -0.5482    2.2229    4.7379 H   0  0  0  0  0  0  0  0  0  0  0  0
   -2.4806    3.9010    5.0665 H   0  0  0  0  0  0  0  0  0  0  0  0
   -2.7326    4.0526    6.7994 H   0  0  0  0  0  0  0  0  0  0  0  0
   -2.4057    2.4696    6.0975 H   0  0  0  0  0  0  0  0  0  0  0  0
   -0.8599    5.8107    5.5355 H   0  0  0  0  0  0  0  0  0  0  0  0
    0.6766    5.5497    6.3309 H   0  0  0  0  0  0  0  0  0  0  0  0
   -0.7956    5.6939    7.2626 H   0  0  0  0  0  0  0  0  0  0  0  0
  1  2  1  0
  1 36  1  0
  1 37  1  0
  1 38  1  0
  2  3  2  0
  2  4  1  0
  4  5  1  0
  5 33  1  0
  5  6  1  0
  5 39  1  6
  6  7  1  0
  6 40  1  0
  6 41  1  0
  7 26  1  0
  7  8  1  0
  7 42  1  6
  8  9  1  0
  9 10  1  0
  9 11  1  0
  9 12  1  0
 10 43  1  0
 10 44  1  0
 10 45  1  0
 11 46  1  0
 11 47  1  0
 11 48  1  0
 12 20  1  0
 12 13  1  0
 12 49  1  1
 13 14  2  0
 13 15  1  0
 15 16  1  0
 15 50  1  0
 15 51  1  0
 16 24  1  0
 16 17  1  0
 16 52  1  6
 17 18  1  0
 17 19  1  0
 17 20  1  0
 18 53  1  0
 18 54  1  0
 18 55  1  0
 19 56  1  0
 19 57  1  0
 19 58  1  0
 20 21  1  6
 20 22  1  0
 21 59  1  0
 22 23  1  0
 22 24  1  0
 22 60  1  1
 23 61  1  0
 24 25  1  6
 26 24  1  6
 25 62  1  0
 26 32  1  0
 26 27  1  0
 27 28  1  0
 27 29  1  0
 27 63  1  1
 28 64  1  0
 29 30  1  0
 29 31  1  0
 29 65  1  1
 30 66  1  0
 31 32  1  0
 31 67  1  0
 31 68  1  0
 32 33  1  0
 32 69  1  6
 33 34  1  0
 33 35  1  0
 34 70  1  0
 34 71  1  0
 34 72  1  0
 35 73  1  0
 35 74  1  0
 35 75  1  0
M  END
>  <i_m_ct_stereo_status>  (275) 
1

>  <s_m_source_file>  (275) 
/var/tmp/pbs.5076255.sched01/tmpgyl_4d9e/126kfdajayx.sdf

>  <i_m_source_file_index>  (275) 
16

>  <i_lp_mmshare_version>  (275) 
48012

>  <i_f3d_flags>  (275) 
0

>  <s_epik_input>  (275) 
W09IXVtDQEhdMVtDQEBIXShbT0hdKVtDSDJdW0NAQEhdMkMoW0NIM10pKFtDSDNdKVtDQEhdKE9DKD1PKVtDSDNdKVtDSDJdW0NASF0oW0NAXTEyMylPQyhbQ0gzXSkoW0NIM10pW0NAQEhdNFtDQEBdNShbT0hdKUMoW0NIM10pKFtDSDNdKVtDQEBIXShbQ0gyXUM0PU8pW0NAXTMoW09IXSlbQ0BASF01W09IXQ==

>  <s_epik_cmdline>  (275) 
J2VwaWtfcHl0aG9uJywgJy1waHQnLCAnMi4wJywgJy1waCcsICc3LjAnLCAnLXRuJywgJzgnLCAnLW1hJywgJzIwMCcsICctaW1hZScsICc8aW5maWxlLm1hZT4nLCAnLW9tYWUnLCAnPG91dGZpbGUubWFlPic=

>  <r_lp_tautomer_probability>  (275) 
1

>  <r_epik_Ionization_Penalty>  (275) 
4.98302e-07

>  <r_epik_Ionization_Penalty_Charging>  (275) 
0

>  <r_epik_Ionization_Penalty_Neutral>  (275) 
4.98302e-07

>  <r_epik_State_Penalty>  (275) 
-0

>  <r_epik_Charging_Adjusted_Penalty>  (275) 
0

>  <i_epik_Tot_Q>  (275) 
0

>  <i_epik_Tot_abs_Q>  (275) 
0

>  <s_epik_Chemistry_Notes>  (275) 
This compound has an ester and may undergo hydrolysis at high or low pH.

>  <s_lp_Force_Field>  (275) 
OPLS3e

>  <r_lp_Energy>  (275) 
109.572

>  <b_lp_Chiralities_Consistent>  (275) 
1

>  <s_lp_Variant>  (275) 
92:0-1

>  <s_i_glide_gridfile>  (275) 
pfpi4k_grid

>  <i_i_glide_lignum>  (275) 
16

>  <i_i_glide_rotatable_bonds>  (275) 
7

>  <r_i_docking_score>  (275) 
-2.5331

>  <r_i_glide_ligand_efficiency>  (275) 
-0.0723742

>  <r_i_glide_ligand_efficiency_sa>  (275) 
-0.236741

>  <r_i_glide_ligand_efficiency_ln>  (275) 
-0.556071

>  <r_i_glide_gscore>  (275) 
-2.5331

>  <r_i_glide_lipo>  (275) 
-0.0816569

>  <r_i_glide_hbond>  (275) 
0

>  <r_i_glide_metal>  (275) 
-0

>  <r_i_glide_rewards>  (275) 
-0.0232473

>  <r_i_glide_evdw>  (275) 
-24.5926

>  <r_i_glide_ecoul>  (275) 
-8.24888

>  <r_i_glide_erotb>  (275) 
0.0826973

>  <r_i_glide_esite>  (275) 
-0.0439277

>  <r_i_glide_emodel>  (275) 
-36.8678

>  <r_i_glide_energy>  (275) 
-32.8415

>  <r_i_glide_einternal>  (275) 
2.37386

>  <r_i_glide_intrahb_reward>  (275) 
-0

>  <i_i_glide_confnum>  (275) 
1

>  <i_i_glide_posenum>  (275) 
32

>  <r_i_glide_eff_state_penalty>  (275) 
0

>  <ligand_id>  (275) 
92

>  <original_smiles>  (275) 
CC(=O)OC1CC2OC(C)(C)C3C(=O)CC4C(C)(C)C3(O)C(O)C4(O)C23C(O)C(O)CC3C1(C)C

>  <smiles>  (275) 
[H]OC1([H])C([H])([H])C2([H])C(C([H])([H])[H])(C([H])([H])[H])C([H])(OC(=O)C([H])([H])[H])C([H])([H])C3([H])OC(C([H])([H])[H])(C([H])([H])[H])C4([H])C(=O)C([H])([H])C5([H])C(O[H])(C([H])(O[H])C4(O[H])C5(C([H])([H])[H])C([H])([H])[H])C32C1([H])O[H]

$$$$
92:0:2
     RDKit          3D

 75 79  0  0  1  0  0  0  0  0999 V2000
   -2.9927    3.4790    9.5765 C   0  0  0  0  0  0  0  0  0  0  0  0
   -1.9938    2.7826    8.6761 C   0  0  0  0  0  0  0  0  0  0  0  0
   -1.7779    1.5773    8.7869 O   0  0  0  0  0  0  0  0  0  0  0  0
   -1.4161    3.5997    7.7736 O   0  0  0  0  0  0  0  0  0  0  0  0
   -0.4866    3.0475    6.8565 C   0  0  2  0  0  0  0  0  0  0  0  0
    0.9062    2.9554    7.4873 C   0  0  0  0  0  0  0  0  0  0  0  0
    1.7856    2.0662    6.6135 C   0  0  1  0  0  0  0  0  0  0  0  0
    1.1826    0.8031    6.8378 O   0  0  0  0  0  0  0  0  0  0  0  0
    1.8373   -0.4297    7.1578 C   0  0  0  0  0  0  0  0  0  0  0  0
    3.1603   -0.3688    7.9839 C   0  0  0  0  0  0  0  0  0  0  0  0
    0.8258   -1.0071    8.1622 C   0  0  0  0  0  0  0  0  0  0  0  0
    1.8927   -1.2829    5.8416 C   0  0  1  0  0  0  0  0  0  0  0  0
    0.4699   -1.2471    5.2304 C   0  0  0  0  0  0  0  0  0  0  0  0
   -0.4118   -2.0581    5.5315 O   0  0  0  0  0  0  0  0  0  0  0  0
    0.2343   -0.1509    4.1976 C   0  0  0  0  0  0  0  0  0  0  0  0
    1.5347    0.2484    3.4398 C   0  0  2  0  0  0  0  0  0  0  0  0
    2.4721   -1.0157    3.2710 C   0  0  0  0  0  0  0  0  0  0  0  0
    1.7890   -2.3429    2.8450 C   0  0  0  0  0  0  0  0  0  0  0  0
    3.5106   -0.8520    2.1031 C   0  0  0  0  0  0  0  0  0  0  0  0
    3.0173   -0.9745    4.7513 C   0  0  2  0  0  0  0  0  0  0  0  0
    4.0565   -1.9194    4.8867 O   0  0  0  0  0  0  0  0  0  0  0  0
    3.5732    0.4709    4.8133 C   0  0  1  0  0  0  0  0  0  0  0  0
    4.8745    0.4998    4.2601 O   0  0  0  0  0  0  0  0  0  0  0  0
    2.4650    1.3549    4.1157 C   0  0  1  0  0  0  0  0  0  0  0  0
    2.9434    1.9426    2.9051 O   0  0  0  0  0  0  0  0  0  0  0  0
    1.8995    2.5310    5.0900 C   0  0  2  0  0  0  0  0  0  0  0  0
    2.8202    3.7955    5.1557 C   0  0  1  0  0  0  0  0  0  0  0  0
    4.2094    3.5374    5.3054 O   0  0  0  0  0  0  0  0  0  0  0  0
    2.4458    4.7730    4.0350 C   0  0  1  0  0  0  0  0  0  0  0  0
    3.3846    4.7888    2.9903 O   0  0  0  0  0  0  0  0  0  0  0  0
    1.1014    4.2601    3.5020 C   0  0  0  0  0  0  0  0  0  0  0  0
    0.5851    3.2193    4.5191 C   0  0  2  0  0  0  0  0  0  0  0  0
   -0.4545    3.8449    5.5222 C   0  0  0  0  0  0  0  0  0  0  0  0
   -1.8584    3.7119    4.8896 C   0  0  0  0  0  0  0  0  0  0  0  0
   -0.2168    5.3428    5.8644 C   0  0  0  0  0  0  0  0  0  0  0  0
   -2.5553    4.3571   10.0541 H   0  0  0  0  0  0  0  0  0  0  0  0
   -3.3246    2.7972   10.3697 H   0  0  0  0  0  0  0  0  0  0  0  0
   -3.8763    3.7880    9.0131 H   0  0  0  0  0  0  0  0  0  0  0  0
   -0.8231    2.0417    6.6045 H   0  0  0  0  0  0  0  0  0  0  0  0
    1.3150    3.9465    7.6539 H   0  0  0  0  0  0  0  0  0  0  0  0
    0.8342    2.5008    8.4818 H   0  0  0  0  0  0  0  0  0  0  0  0
    2.7652    2.1046    7.0962 H   0  0  0  0  0  0  0  0  0  0  0  0
    3.2654   -1.2837    8.5685 H   0  0  0  0  0  0  0  0  0  0  0  0
    3.1422    0.4644    8.6935 H   0  0  0  0  0  0  0  0  0  0  0  0
    4.0842   -0.3241    7.4193 H   0  0  0  0  0  0  0  0  0  0  0  0
    1.0364   -2.0543    8.3820 H   0  0  0  0  0  0  0  0  0  0  0  0
   -0.2019   -0.9355    7.8043 H   0  0  0  0  0  0  0  0  0  0  0  0
    0.8521   -0.4499    9.1010 H   0  0  0  0  0  0  0  0  0  0  0  0
    2.0558   -2.3119    6.1387 H   0  0  0  0  0  0  0  0  0  0  0  0
   -0.4836   -0.5338    3.4810 H   0  0  0  0  0  0  0  0  0  0  0  0
   -0.2510    0.6809    4.7014 H   0  0  0  0  0  0  0  0  0  0  0  0
    1.1868    0.5888    2.4616 H   0  0  0  0  0  0  0  0  0  0  0  0
    2.4261   -2.9386    2.1842 H   0  0  0  0  0  0  0  0  0  0  0  0
    0.8783   -2.1334    2.2867 H   0  0  0  0  0  0  0  0  0  0  0  0
    1.5629   -3.0171    3.6695 H   0  0  0  0  0  0  0  0  0  0  0  0
    4.2418   -1.6673    2.1301 H   0  0  0  0  0  0  0  0  0  0  0  0
    4.1033    0.0539    2.0484 H   0  0  0  0  0  0  0  0  0  0  0  0
    2.9957   -0.8864    1.1376 H   0  0  0  0  0  0  0  0  0  0  0  0
    4.7326   -1.6499    4.2566 H   0  0  0  0  0  0  0  0  0  0  0  0
    3.8023    0.8355    5.8017 H   0  0  0  0  0  0  0  0  0  0  0  0
    5.0488    1.3982    4.0193 H   0  0  0  0  0  0  0  0  0  0  0  0
    3.6552    2.5562    3.0095 H   0  0  0  0  0  0  0  0  0  0  0  0
    2.6007    4.3631    6.0581 H   0  0  0  0  0  0  0  0  0  0  0  0
    4.5673    3.3275    4.4476 H   0  0  0  0  0  0  0  0  0  0  0  0
    2.3316    5.7942    4.4085 H   0  0  0  0  0  0  0  0  0  0  0  0
    2.9730    5.2048    2.2424 H   0  0  0  0  0  0  0  0  0  0  0  0
    0.3823    5.0414    3.2598 H   0  0  0  0  0  0  0  0  0  0  0  0
    1.2626    3.7322    2.5669 H   0  0  0  0  0  0  0  0  0  0  0  0
    0.0298    2.4919    3.9305 H   0  0  0  0  0  0  0  0  0  0  0  0
   -1.8900    4.2298    3.9216 H   0  0  0  0  0  0  0  0  0  0  0  0
   -2.6248    4.1273    5.5417 H   0  0  0  0  0  0  0  0  0  0  0  0
   -2.1201    2.6650    4.7263 H   0  0  0  0  0  0  0  0  0  0  0  0
   -0.4401    5.9770    5.0021 H   0  0  0  0  0  0  0  0  0  0  0  0
    0.7970    5.5681    6.1904 H   0  0  0  0  0  0  0  0  0  0  0  0
   -0.8832    5.6875    6.6564 H   0  0  0  0  0  0  0  0  0  0  0  0
  1  2  1  0
  1 36  1  0
  1 37  1  0
  1 38  1  0
  2  3  2  0
  2  4  1  0
  4  5  1  0
  5 33  1  0
  5  6  1  0
  5 39  1  6
  6  7  1  0
  6 40  1  0
  6 41  1  0
  7 26  1  0
  7  8  1  0
  7 42  1  1
  8  9  1  0
  9 10  1  0
  9 11  1  0
  9 12  1  0
 10 43  1  0
 10 44  1  0
 10 45  1  0
 11 46  1  0
 11 47  1  0
 11 48  1  0
 12 20  1  0
 12 13  1  0
 12 49  1  1
 13 14  2  0
 13 15  1  0
 15 16  1  0
 15 50  1  0
 15 51  1  0
 16 24  1  0
 16 17  1  0
 16 52  1  6
 17 18  1  0
 17 19  1  0
 17 20  1  0
 18 53  1  0
 18 54  1  0
 18 55  1  0
 19 56  1  0
 19 57  1  0
 19 58  1  0
 20 21  1  6
 20 22  1  0
 21 59  1  0
 22 23  1  0
 22 24  1  0
 22 60  1  1
 23 61  1  0
 24 25  1  6
 26 24  1  6
 25 62  1  0
 26 32  1  0
 26 27  1  0
 27 28  1  0
 27 29  1  0
 27 63  1  1
 28 64  1  0
 29 30  1  0
 29 31  1  0
 29 65  1  1
 30 66  1  0
 31 32  1  0
 31 67  1  0
 31 68  1  0
 32 33  1  0
 32 69  1  6
 33 34  1  0
 33 35  1  0
 34 70  1  0
 34 71  1  0
 34 72  1  0
 35 73  1  0
 35 74  1  0
 35 75  1  0
M  END
>  <i_m_ct_stereo_status>  (276) 
1

>  <s_m_source_file>  (276) 
/var/tmp/pbs.5076255.sched01/tmpgyl_4d9e/126kfdajayx.sdf

>  <i_m_source_file_index>  (276) 
16

>  <i_lp_mmshare_version>  (276) 
48012

>  <i_f3d_flags>  (276) 
0

>  <s_epik_input>  (276) 
W09IXVtDQEhdMVtDQEBIXShbT0hdKVtDSDJdW0NAQEhdMkMoW0NIM10pKFtDSDNdKVtDQEhdKE9DKD1PKVtDSDNdKVtDSDJdW0NASF0oW0NAXTEyMylPQyhbQ0gzXSkoW0NIM10pW0NAQEhdNFtDQEBdNShbT0hdKUMoW0NIM10pKFtDSDNdKVtDQEBIXShbQ0gyXUM0PU8pW0NAXTMoW09IXSlbQ0BASF01W09IXQ==

>  <s_epik_cmdline>  (276) 
J2VwaWtfcHl0aG9uJywgJy1waHQnLCAnMi4wJywgJy1waCcsICc3LjAnLCAnLXRuJywgJzgnLCAnLW1hJywgJzIwMCcsICctaW1hZScsICc8aW5maWxlLm1hZT4nLCAnLW9tYWUnLCAnPG91dGZpbGUubWFlPic=

>  <r_lp_tautomer_probability>  (276) 
1

>  <r_epik_Ionization_Penalty>  (276) 
4.98302e-07

>  <r_epik_Ionization_Penalty_Charging>  (276) 
0

>  <r_epik_Ionization_Penalty_Neutral>  (276) 
4.98302e-07

>  <r_epik_State_Penalty>  (276) 
-0

>  <r_epik_Charging_Adjusted_Penalty>  (276) 
0

>  <i_epik_Tot_Q>  (276) 
0

>  <i_epik_Tot_abs_Q>  (276) 
0

>  <s_epik_Chemistry_Notes>  (276) 
This compound has an ester and may undergo hydrolysis at high or low pH.

>  <s_lp_Force_Field>  (276) 
OPLS3e

>  <r_lp_Energy>  (276) 
109.572

>  <b_lp_Chiralities_Consistent>  (276) 
1

>  <s_lp_Variant>  (276) 
92:0-1

>  <s_i_glide_gridfile>  (276) 
pfpi4k_grid

>  <i_i_glide_lignum>  (276) 
16

>  <i_i_glide_rotatable_bonds>  (276) 
7

>  <r_i_docking_score>  (276) 
-2.37627

>  <r_i_glide_ligand_efficiency>  (276) 
-0.0678934

>  <r_i_glide_ligand_efficiency_sa>  (276) 
-0.222084

>  <r_i_glide_ligand_efficiency_ln>  (276) 
-0.521644

>  <r_i_glide_gscore>  (276) 
-2.37627

>  <r_i_glide_lipo>  (276) 
-0.00193499

>  <r_i_glide_hbond>  (276) 
0

>  <r_i_glide_metal>  (276) 
-0

>  <r_i_glide_rewards>  (276) 
-0.523247

>  <r_i_glide_evdw>  (276) 
-24.6112

>  <r_i_glide_ecoul>  (276) 
-4.51802

>  <r_i_glide_erotb>  (276) 
0.0826973

>  <r_i_glide_esite>  (276) 
-0.0255205

>  <r_i_glide_emodel>  (276) 
-37.735

>  <r_i_glide_energy>  (276) 
-29.1292

>  <r_i_glide_einternal>  (276) 
1.89031

>  <r_i_glide_intrahb_reward>  (276) 
-0.5

>  <i_i_glide_confnum>  (276) 
2

>  <i_i_glide_posenum>  (276) 
21

>  <r_i_glide_eff_state_penalty>  (276) 
0

>  <ligand_id>  (276) 
92

>  <original_smiles>  (276) 
CC(=O)OC1CC2OC(C)(C)C3C(=O)CC4C(C)(C)C3(O)C(O)C4(O)C23C(O)C(O)CC3C1(C)C

>  <smiles>  (276) 
[H]OC1([H])C([H])([H])C2([H])C(C([H])([H])[H])(C([H])([H])[H])C([H])(OC(=O)C([H])([H])[H])C([H])([H])C3([H])OC(C([H])([H])[H])(C([H])([H])[H])C4([H])C(=O)C([H])([H])C5([H])C(O[H])(C([H])(O[H])C4(O[H])C5(C([H])([H])[H])C([H])([H])[H])C32C1([H])O[H]

$$$$
94:0:0
     RDKit          3D

 61 63  0  0  1  0  0  0  0  0999 V2000
    5.3960   -2.9808    4.3388 C   0  0  0  0  0  0  0  0  0  0  0  0
    5.5520   -3.3197    3.0418 C   0  0  0  0  0  0  0  0  0  0  0  0
    6.1892   -4.5929    2.5515 C   0  0  1  0  0  0  0  0  0  0  0  0
    5.1081   -5.6085    2.4280 C   0  0  0  0  0  0  0  0  0  0  0  0
    3.8547   -5.1593    1.5826 C   0  0  1  0  0  0  0  0  0  0  0  0
    2.9407   -4.4220    2.4086 O   0  0  0  0  0  0  0  0  0  0  0  0
    1.8965   -4.9830    3.0810 C   0  0  0  0  0  0  0  0  0  0  0  0
    1.1181   -4.3302    3.7787 O   0  0  0  0  0  0  0  0  0  0  0  0
    1.7041   -6.5027    2.8889 C   0  0  0  0  0  0  0  0  0  0  0  0
    0.5187   -7.0589    3.6500 C   0  0  0  0  0  0  0  0  0  0  0  0
    2.9124   -7.3315    3.3262 C   0  0  0  0  0  0  0  0  0  0  0  0
    4.2918   -4.4944    0.2530 C   0  0  1  0  0  0  0  0  0  0  0  0
    4.6886   -5.7482   -0.6100 C   0  0  0  0  0  0  0  0  0  0  0  0
    3.1021   -3.8942   -0.5653 C   0  0  1  0  0  0  0  0  0  0  0  0
    2.2263   -3.0300    0.1569 O   0  0  0  0  0  0  0  0  0  0  0  0
    3.5505   -3.1238   -1.8098 C   0  0  0  0  0  0  0  0  0  0  0  0
    4.6386   -2.0701   -1.5368 C   0  0  1  0  0  0  0  0  0  0  0  0
    4.0614   -0.9532   -0.8972 O   0  0  0  0  0  0  0  0  0  0  0  0
    5.8731   -2.6355   -0.7751 C   0  0  1  0  0  0  0  0  0  0  0  0
    6.7809   -3.3617   -1.8081 C   0  0  0  0  0  0  0  0  0  0  0  0
    6.6935   -1.5323   -0.4342 O   0  0  0  0  0  0  0  0  0  0  0  0
    5.4899   -3.4486    0.5397 C   0  0  1  0  0  0  0  0  0  0  0  0
    5.2373   -2.4977    1.8010 C   0  0  1  0  0  0  0  0  0  0  0  0
    3.9755   -1.8550    1.8662 O   0  0  0  0  0  0  0  0  0  0  0  0
    3.8064   -0.6548    2.4464 C   0  0  0  0  0  0  0  0  0  0  0  0
    2.3872   -0.1324    2.2742 C   0  0  0  0  0  0  0  0  0  0  0  0
    4.6607   -0.0112    3.0566 O   0  0  0  0  0  0  0  0  0  0  0  0
    6.6810   -4.2678    1.1466 C   0  0  1  0  0  0  0  0  0  0  0  0
    7.9051   -3.5796    1.2615 O   0  0  0  0  0  0  0  0  0  0  0  0
    5.0001   -2.0200    4.6286 H   0  0  0  0  0  0  0  0  0  0  0  0
    5.6827   -3.6467    5.1445 H   0  0  0  0  0  0  0  0  0  0  0  0
    6.9522   -5.0306    3.2041 H   0  0  0  0  0  0  0  0  0  0  0  0
    5.5169   -6.5378    2.0238 H   0  0  0  0  0  0  0  0  0  0  0  0
    4.8691   -5.8388    3.4649 H   0  0  0  0  0  0  0  0  0  0  0  0
    3.2934   -6.0184    1.2209 H   0  0  0  0  0  0  0  0  0  0  0  0
    1.5372   -6.6578    1.8238 H   0  0  0  0  0  0  0  0  0  0  0  0
   -0.3970   -6.5804    3.3297 H   0  0  0  0  0  0  0  0  0  0  0  0
    0.6460   -6.9148    4.7225 H   0  0  0  0  0  0  0  0  0  0  0  0
    0.4375   -8.1284    3.4587 H   0  0  0  0  0  0  0  0  0  0  0  0
    3.6802   -7.2916    2.6127 H   0  0  0  0  0  0  0  0  0  0  0  0
    2.9020   -8.3758    3.0896 H   0  0  0  0  0  0  0  0  0  0  0  0
    3.3262   -7.0851    4.3064 H   0  0  0  0  0  0  0  0  0  0  0  0
    5.0105   -5.5106   -1.6171 H   0  0  0  0  0  0  0  0  0  0  0  0
    3.8425   -6.4372   -0.7090 H   0  0  0  0  0  0  0  0  0  0  0  0
    5.4532   -6.3909   -0.1937 H   0  0  0  0  0  0  0  0  0  0  0  0
    2.4139   -4.6788   -0.8748 H   0  0  0  0  0  0  0  0  0  0  0  0
    1.8953   -2.3695   -0.3869 H   0  0  0  0  0  0  0  0  0  0  0  0
    3.9191   -3.8364   -2.5471 H   0  0  0  0  0  0  0  0  0  0  0  0
    2.6942   -2.6597   -2.2947 H   0  0  0  0  0  0  0  0  0  0  0  0
    4.9646   -1.6819   -2.5007 H   0  0  0  0  0  0  0  0  0  0  0  0
    3.1758   -0.8345   -1.2193 H   0  0  0  0  0  0  0  0  0  0  0  0
    6.2480   -4.0828   -2.4206 H   0  0  0  0  0  0  0  0  0  0  0  0
    7.6408   -3.8525   -1.3554 H   0  0  0  0  0  0  0  0  0  0  0  0
    7.1979   -2.6588   -2.5333 H   0  0  0  0  0  0  0  0  0  0  0  0
    6.2248   -0.9918    0.1847 H   0  0  0  0  0  0  0  0  0  0  0  0
    6.0043   -1.7262    1.8003 H   0  0  0  0  0  0  0  0  0  0  0  0
    1.6640   -0.8659    2.6309 H   0  0  0  0  0  0  0  0  0  0  0  0
    2.1884    0.0632    1.2201 H   0  0  0  0  0  0  0  0  0  0  0  0
    2.2451    0.7942    2.8299 H   0  0  0  0  0  0  0  0  0  0  0  0
    6.9321   -5.1591    0.5871 H   0  0  0  0  0  0  0  0  0  0  0  0
    8.4627   -4.0238    1.8867 H   0  0  0  0  0  0  0  0  0  0  0  0
  1  2  2  0
  1 30  1  0
  1 31  1  0
  2 23  1  0
  2  3  1  0
  3 28  1  0
  3  4  1  0
  3 32  1  1
  4  5  1  0
  4 33  1  0
  4 34  1  0
  5  6  1  0
  5 12  1  0
  5 35  1  6
  6  7  1  0
  7  8  2  0
  7  9  1  0
  9 10  1  0
  9 11  1  0
  9 36  1  0
 10 37  1  0
 10 38  1  0
 10 39  1  0
 11 40  1  0
 11 41  1  0
 11 42  1  0
 12 22  1  0
 12 13  1  6
 12 14  1  0
 13 43  1  0
 13 44  1  0
 13 45  1  0
 14 15  1  0
 14 16  1  0
 14 46  1  6
 15 47  1  0
 16 17  1  0
 16 48  1  0
 16 49  1  0
 17 18  1  0
 17 19  1  0
 17 50  1  6
 18 51  1  0
 19 20  1  0
 19 21  1  1
 22 19  1  6
 20 52  1  0
 20 53  1  0
 20 54  1  0
 21 55  1  0
 22 23  1  0
 22 28  1  0
 23 24  1  0
 23 56  1  6
 24 25  1  0
 25 26  1  0
 25 27  2  0
 26 57  1  0
 26 58  1  0
 26 59  1  0
 28 29  1  0
 28 60  1  6
 29 61  1  0
M  END
>  <i_m_ct_stereo_status>  (277) 
1

>  <s_m_source_file>  (277) 
/var/tmp/pbs.5076255.sched01/tmpgyl_4d9e/126kfdajayx.sdf

>  <i_m_source_file_index>  (277) 
19

>  <i_lp_mmshare_version>  (277) 
48012

>  <i_f3d_flags>  (277) 
0

>  <s_epik_input>  (277) 
W0NIM11DKD1PKU9bQ0BIXTFDKD1bQ0gyXSlbQ0BIXShbQ0BASF0yW09IXSlbQ0gyXVtDQEBIXShPQyg9TylbQ0hdKFtDSDNdKVtDSDNdKVtDQEBdKFtDQEBdMTIzKShbQ0gzXSlbQ0BASF0oW09IXSlbQ0gyXVtDQEBIXShbT0hdKVtDQEBdMyhbQ0gzXSlbT0hd

>  <s_epik_cmdline>  (277) 
J2VwaWtfcHl0aG9uJywgJy1waHQnLCAnMi4wJywgJy1waCcsICc3LjAnLCAnLXRuJywgJzgnLCAnLW1hJywgJzIwMCcsICctaW1hZScsICc8aW5maWxlLm1hZT4nLCAnLW9tYWUnLCAnPG91dGZpbGUubWFlPic=

>  <r_lp_tautomer_probability>  (277) 
1

>  <r_epik_Ionization_Penalty>  (277) 
2.00035e-07

>  <r_epik_Ionization_Penalty_Charging>  (277) 
0

>  <r_epik_Ionization_Penalty_Neutral>  (277) 
2.00035e-07

>  <r_epik_State_Penalty>  (277) 
-0

>  <r_epik_Charging_Adjusted_Penalty>  (277) 
0

>  <i_epik_Tot_Q>  (277) 
0

>  <i_epik_Tot_abs_Q>  (277) 
0

>  <s_epik_Chemistry_Notes>  (277) 
This compound has an ester and may undergo hydrolysis at high or low pH.

>  <s_lp_Force_Field>  (277) 
OPLS3e

>  <r_lp_Energy>  (277) 
48.9749

>  <b_lp_Chiralities_Consistent>  (277) 
1

>  <s_lp_Variant>  (277) 
94:0-1

>  <s_i_glide_gridfile>  (277) 
pfpi4k_grid

>  <i_i_glide_lignum>  (277) 
19

>  <i_i_glide_rotatable_bonds>  (277) 
9

>  <r_i_docking_score>  (277) 
-1.15774

>  <r_i_glide_ligand_efficiency>  (277) 
-0.0399221

>  <r_i_glide_ligand_efficiency_sa>  (277) 
-0.122653

>  <r_i_glide_ligand_efficiency_ln>  (277) 
-0.265093

>  <r_i_glide_gscore>  (277) 
-1.15774

>  <r_i_glide_lipo>  (277) 
-0.43806

>  <r_i_glide_hbond>  (277) 
0

>  <r_i_glide_metal>  (277) 
-0

>  <r_i_glide_rewards>  (277) 
-0.627893

>  <r_i_glide_evdw>  (277) 
-9.13159

>  <r_i_glide_ecoul>  (277) 
-6.64392

>  <r_i_glide_erotb>  (277) 
0.243398

>  <r_i_glide_esite>  (277) 
-0.00951221

>  <r_i_glide_emodel>  (277) 
-6.31492

>  <r_i_glide_energy>  (277) 
-15.7755

>  <r_i_glide_einternal>  (277) 
7.94068

>  <r_i_glide_intrahb_reward>  (277) 
-0

>  <i_i_glide_confnum>  (277) 
4

>  <i_i_glide_posenum>  (277) 
38

>  <r_i_glide_eff_state_penalty>  (277) 
0

>  <ligand_id>  (277) 
94

>  <original_smiles>  (277) 
C=C1C2CC(OC(=O)C(C)C)C3(C)C(O)CC(O)C(C)(O)C3(C1OC(C)=O)C2O

>  <smiles>  (277) 
[H]OC1([H])C([H])([H])C([H])(O[H])C2(C([H])([H])[H])C([H])(OC(=O)C([H])(C([H])([H])[H])C([H])([H])[H])C([H])([H])C3([H])C(=C([H])[H])C([H])(OC(=O)C([H])([H])[H])C2(C3([H])O[H])C1(O[H])C([H])([H])[H]

$$$$
95:0:0
     RDKit          3D

 59 61  0  0  1  0  0  0  0  0999 V2000
    3.7491   -0.2594   -3.3678 C   0  0  0  0  0  0  0  0  0  0  0  0
    3.6221   -1.7125   -3.8440 C   0  0  0  0  0  0  0  0  0  0  0  0
    2.9539   -2.6388   -2.8141 C   0  0  0  0  0  0  0  0  0  0  0  0
    3.8409   -2.8613   -1.5816 C   0  0  0  0  0  0  0  0  0  0  0  0
    3.2026   -3.7750   -0.5225 C   0  0  0  0  0  0  0  0  0  0  0  0
    4.1611   -4.1893    0.6170 C   0  0  2  0  0  0  0  0  0  0  0  0
    5.4806   -4.8169    0.1159 C   0  0  0  0  0  0  0  0  0  0  0  0
    3.4526   -5.1093    1.6088 C   0  0  0  0  0  0  0  0  0  0  0  0
    3.1784   -6.4518    1.2882 C   0  0  0  0  0  0  0  0  0  0  0  0
    2.5462   -7.3089    2.2077 C   0  0  0  0  0  0  0  0  0  0  0  0
    2.3758   -8.6019    1.8107 O   0  0  0  0  0  0  0  0  0  0  0  0
    2.1441   -6.8325    3.4887 C   0  0  0  0  0  0  0  0  0  0  0  0
    2.4437   -5.4740    3.8084 C   0  0  0  0  0  0  0  0  0  0  0  0
    3.0787   -4.6349    2.8767 C   0  0  0  0  0  0  0  0  0  0  0  0
    2.1263   -4.8869    5.0141 O   0  0  0  0  0  0  0  0  0  0  0  0
    1.7670   -5.7236    6.1127 C   0  0  0  0  0  0  0  0  0  0  0  0
    3.0659   -6.3089    6.7168 C   0  0  0  0  0  0  0  0  0  0  0  0
    1.1200   -4.7824    7.1505 C   0  0  0  0  0  0  0  0  0  0  0  0
    0.7767   -6.8189    5.6280 C   0  0  1  0  0  0  0  0  0  0  0  0
   -0.5652   -6.2097    5.1178 C   0  0  0  0  0  0  0  0  0  0  0  0
   -1.3087   -7.0543    4.0956 C   0  0  0  0  0  0  0  0  0  0  0  0
   -0.8568   -8.2172    3.6083 C   0  0  0  0  0  0  0  0  0  0  0  0
   -1.6157   -9.0276    2.5824 C   0  0  0  0  0  0  0  0  0  0  0  0
    0.4506   -8.8023    4.0971 C   0  0  0  0  0  0  0  0  0  0  0  0
    1.4516   -7.7082    4.5570 C   0  0  1  0  0  0  0  0  0  0  0  0
    4.1893    0.3703   -4.1405 H   0  0  0  0  0  0  0  0  0  0  0  0
    4.3729   -0.1719   -2.4785 H   0  0  0  0  0  0  0  0  0  0  0  0
    2.7656    0.1438   -3.1265 H   0  0  0  0  0  0  0  0  0  0  0  0
    3.0117   -1.7248   -4.7432 H   0  0  0  0  0  0  0  0  0  0  0  0
    4.6037   -2.1020   -4.1257 H   0  0  0  0  0  0  0  0  0  0  0  0
    1.9728   -2.2508   -2.5325 H   0  0  0  0  0  0  0  0  0  0  0  0
    2.7739   -3.6072   -3.2869 H   0  0  0  0  0  0  0  0  0  0  0  0
    4.7709   -3.2851   -1.9628 H   0  0  0  0  0  0  0  0  0  0  0  0
    4.0857   -1.9128   -1.1000 H   0  0  0  0  0  0  0  0  0  0  0  0
    2.3405   -3.2620   -0.0952 H   0  0  0  0  0  0  0  0  0  0  0  0
    2.7983   -4.6504   -1.0077 H   0  0  0  0  0  0  0  0  0  0  0  0
    4.4317   -3.2802    1.1580 H   0  0  0  0  0  0  0  0  0  0  0  0
    6.1063   -5.1319    0.9507 H   0  0  0  0  0  0  0  0  0  0  0  0
    6.0718   -4.1176   -0.4751 H   0  0  0  0  0  0  0  0  0  0  0  0
    5.2899   -5.6872   -0.5072 H   0  0  0  0  0  0  0  0  0  0  0  0
    3.4727   -6.8456    0.3263 H   0  0  0  0  0  0  0  0  0  0  0  0
    1.9637   -9.1563    2.4593 H   0  0  0  0  0  0  0  0  0  0  0  0
    3.2991   -3.6150    3.1553 H   0  0  0  0  0  0  0  0  0  0  0  0
    2.8498   -7.0248    7.5098 H   0  0  0  0  0  0  0  0  0  0  0  0
    3.6911   -5.5183    7.1339 H   0  0  0  0  0  0  0  0  0  0  0  0
    3.6738   -6.8129    5.9646 H   0  0  0  0  0  0  0  0  0  0  0  0
    0.7469   -5.3299    8.0158 H   0  0  0  0  0  0  0  0  0  0  0  0
    0.2899   -4.2195    6.7198 H   0  0  0  0  0  0  0  0  0  0  0  0
    1.8427   -4.0455    7.5051 H   0  0  0  0  0  0  0  0  0  0  0  0
    0.5254   -7.4618    6.4719 H   0  0  0  0  0  0  0  0  0  0  0  0
   -1.2371   -6.0283    5.9566 H   0  0  0  0  0  0  0  0  0  0  0  0
   -0.3880   -5.2475    4.6381 H   0  0  0  0  0  0  0  0  0  0  0  0
   -2.2483   -6.6530    3.7411 H   0  0  0  0  0  0  0  0  0  0  0  0
   -1.7893  -10.0373    2.9483 H   0  0  0  0  0  0  0  0  0  0  0  0
   -1.0152   -9.1025    1.6801 H   0  0  0  0  0  0  0  0  0  0  0  0
   -2.5734   -8.5717    2.3305 H   0  0  0  0  0  0  0  0  0  0  0  0
    0.1840   -9.4074    4.9671 H   0  0  0  0  0  0  0  0  0  0  0  0
    0.8554   -9.5248    3.3925 H   0  0  0  0  0  0  0  0  0  0  0  0
    2.2591   -8.2568    5.0381 H   0  0  0  0  0  0  0  0  0  0  0  0
  1  2  1  0
  1 26  1  0
  1 27  1  0
  1 28  1  0
  2  3  1  0
  2 29  1  0
  2 30  1  0
  3  4  1  0
  3 31  1  0
  3 32  1  0
  4  5  1  0
  4 33  1  0
  4 34  1  0
  5  6  1  0
  5 35  1  0
  5 36  1  0
  6  7  1  0
  6  8  1  0
  6 37  1  1
  7 38  1  0
  7 39  1  0
  7 40  1  0
  8 14  2  0
  8  9  1  0
  9 10  2  0
  9 41  1  0
 10 11  1  0
 10 12  1  0
 11 42  1  0
 12 25  1  0
 12 13  2  0
 13 14  1  0
 13 15  1  0
 14 43  1  0
 15 16  1  0
 16 17  1  0
 16 18  1  0
 16 19  1  0
 17 44  1  0
 17 45  1  0
 17 46  1  0
 18 47  1  0
 18 48  1  0
 18 49  1  0
 19 25  1  0
 19 20  1  0
 19 50  1  1
 20 21  1  0
 20 51  1  0
 20 52  1  0
 21 22  2  0
 21 53  1  0
 22 23  1  0
 22 24  1  0
 23 54  1  0
 23 55  1  0
 23 56  1  0
 24 25  1  0
 24 57  1  0
 24 58  1  0
 25 59  1  1
M  END
>  <i_m_ct_stereo_status>  (278) 
1

>  <s_m_source_file>  (278) 
/var/tmp/pbs.5076255.sched01/tmpgyl_4d9e/126kfdajayx.sdf

>  <i_m_source_file_index>  (278) 
20

>  <i_lp_mmshare_version>  (278) 
48012

>  <i_f3d_flags>  (278) 
0

>  <s_epik_input>  (278) 
W0NIM11bQ0gyXVtDSDJdW0NIMl1bQ0gyXVtDQEhdKFtDSDNdKWMoW2NIXWMxW09IXSlbY0hdYyhjMTIpT0MoW0NIM10pKFtDSDNdKVtDQEBIXTNbQ0BIXTJbQ0gyXUMoW0NIM10pPVtDSF1bQ0gyXTM=

>  <s_epik_cmdline>  (278) 
J2VwaWtfcHl0aG9uJywgJy1waHQnLCAnMi4wJywgJy1waCcsICc3LjAnLCAnLXRuJywgJzgnLCAnLW1hJywgJzIwMCcsICctaW1hZScsICc8aW5maWxlLm1hZT4nLCAnLW9tYWUnLCAnPG91dGZpbGUubWFlPic=

>  <r_lp_tautomer_probability>  (278) 
1

>  <r_epik_Ionization_Penalty>  (278) 
0.000214043

>  <r_epik_Ionization_Penalty_Charging>  (278) 
0

>  <r_epik_Ionization_Penalty_Neutral>  (278) 
0.000214043

>  <r_epik_State_Penalty>  (278) 
-0

>  <r_epik_Charging_Adjusted_Penalty>  (278) 
0

>  <i_epik_Tot_Q>  (278) 
0

>  <i_epik_Tot_abs_Q>  (278) 
0

>  <s_lp_Force_Field>  (278) 
OPLS3e

>  <r_lp_Energy>  (278) 
26.7225

>  <b_lp_Chiralities_Consistent>  (278) 
1

>  <s_lp_Variant>  (278) 
95:0-1

>  <s_i_glide_gridfile>  (278) 
pfpi4k_grid

>  <i_i_glide_lignum>  (278) 
20

>  <i_i_glide_rotatable_bonds>  (278) 
6

>  <r_i_docking_score>  (278) 
-2.36907

>  <r_i_glide_ligand_efficiency>  (278) 
-0.0947627

>  <r_i_glide_ligand_efficiency_sa>  (278) 
-0.277088

>  <r_i_glide_ligand_efficiency_ln>  (278) 
-0.56154

>  <r_i_glide_gscore>  (278) 
-2.36907

>  <r_i_glide_lipo>  (278) 
-0.584887

>  <r_i_glide_hbond>  (278) 
0

>  <r_i_glide_metal>  (278) 
-0

>  <r_i_glide_rewards>  (278) 
-1.07376

>  <r_i_glide_evdw>  (278) 
-25.4255

>  <r_i_glide_ecoul>  (278) 
-0.571475

>  <r_i_glide_erotb>  (278) 
0.646575

>  <r_i_glide_esite>  (278) 
0

>  <r_i_glide_emodel>  (278) 
-28.6147

>  <r_i_glide_energy>  (278) 
-25.9969

>  <r_i_glide_einternal>  (278) 
1.75745

>  <r_i_glide_intrahb_reward>  (278) 
-0

>  <i_i_glide_confnum>  (278) 
6

>  <i_i_glide_posenum>  (278) 
40

>  <r_i_glide_eff_state_penalty>  (278) 
0

>  <ligand_id>  (278) 
95

>  <original_smiles>  (278) 
CCCCCC(C)c1cc(O)c2c(c1)OC(C)(C)C1CC=C(C)CC21

>  <smiles>  (278) 
[H]Oc1c([H])c(C([H])(C([H])([H])[H])C([H])([H])C([H])([H])C([H])([H])C([H])([H])C([H])([H])[H])c([H])c2c1C1([H])C([H])([H])C(C([H])([H])[H])=C([H])C([H])([H])C1([H])C(C([H])([H])[H])(C([H])([H])[H])O2

$$$$
95:0:1
     RDKit          3D

 59 61  0  0  1  0  0  0  0  0999 V2000
    4.2954   -1.1319   -3.5421 C   0  0  0  0  0  0  0  0  0  0  0  0
    2.9012   -1.6901   -3.2382 C   0  0  0  0  0  0  0  0  0  0  0  0
    2.9091   -2.9717   -2.3873 C   0  0  0  0  0  0  0  0  0  0  0  0
    3.4875   -2.7474   -0.9805 C   0  0  0  0  0  0  0  0  0  0  0  0
    3.3412   -3.9682   -0.0575 C   0  0  0  0  0  0  0  0  0  0  0  0
    3.9292   -3.7422    1.3500 C   0  0  2  0  0  0  0  0  0  0  0  0
    5.4635   -3.5961    1.3336 C   0  0  0  0  0  0  0  0  0  0  0  0
    3.4725   -4.8369    2.3101 C   0  0  0  0  0  0  0  0  0  0  0  0
    4.0478   -6.1231    2.2832 C   0  0  0  0  0  0  0  0  0  0  0  0
    3.6324   -7.1228    3.1838 C   0  0  0  0  0  0  0  0  0  0  0  0
    4.2910   -8.3141    3.1054 O   0  0  0  0  0  0  0  0  0  0  0  0
    2.5992   -6.8699    4.1294 C   0  0  0  0  0  0  0  0  0  0  0  0
    2.0334   -5.5587    4.1580 C   0  0  0  0  0  0  0  0  0  0  0  0
    2.4672   -4.5694    3.2553 C   0  0  0  0  0  0  0  0  0  0  0  0
    1.0417   -5.1749    5.0346 O   0  0  0  0  0  0  0  0  0  0  0  0
    0.7673   -6.0014    6.1625 C   0  0  0  0  0  0  0  0  0  0  0  0
    1.8477   -5.7235    7.2354 C   0  0  0  0  0  0  0  0  0  0  0  0
   -0.5913   -5.5144    6.7064 C   0  0  0  0  0  0  0  0  0  0  0  0
    0.7194   -7.4894    5.7175 C   0  0  1  0  0  0  0  0  0  0  0  0
   -0.4394   -7.7671    4.7095 C   0  0  0  0  0  0  0  0  0  0  0  0
   -0.2148   -8.9355    3.7676 C   0  0  0  0  0  0  0  0  0  0  0  0
    0.8996   -9.6833    3.7582 C   0  0  0  0  0  0  0  0  0  0  0  0
    1.0994  -10.8508    2.8183 C   0  0  0  0  0  0  0  0  0  0  0  0
    2.0280   -9.4036    4.7265 C   0  0  0  0  0  0  0  0  0  0  0  0
    2.0923   -7.9135    5.1506 C   0  0  1  0  0  0  0  0  0  0  0  0
    4.2247   -0.2388   -4.1626 H   0  0  0  0  0  0  0  0  0  0  0  0
    4.9011   -1.8705   -4.0634 H   0  0  0  0  0  0  0  0  0  0  0  0
    4.8216   -0.8495   -2.6307 H   0  0  0  0  0  0  0  0  0  0  0  0
    2.3168   -0.9270   -2.7227 H   0  0  0  0  0  0  0  0  0  0  0  0
    2.3872   -1.8952   -4.1791 H   0  0  0  0  0  0  0  0  0  0  0  0
    1.8823   -3.3352   -2.3075 H   0  0  0  0  0  0  0  0  0  0  0  0
    3.4726   -3.7554   -2.8982 H   0  0  0  0  0  0  0  0  0  0  0  0
    4.5401   -2.4956   -1.0853 H   0  0  0  0  0  0  0  0  0  0  0  0
    3.0099   -1.8829   -0.5182 H   0  0  0  0  0  0  0  0  0  0  0  0
    2.2778   -4.1870    0.0353 H   0  0  0  0  0  0  0  0  0  0  0  0
    3.7953   -4.8462   -0.5154 H   0  0  0  0  0  0  0  0  0  0  0  0
    3.5221   -2.8054    1.7336 H   0  0  0  0  0  0  0  0  0  0  0  0
    5.8524   -3.4466    2.3388 H   0  0  0  0  0  0  0  0  0  0  0  0
    5.7859   -2.7421    0.7407 H   0  0  0  0  0  0  0  0  0  0  0  0
    5.9438   -4.4763    0.9132 H   0  0  0  0  0  0  0  0  0  0  0  0
    4.8280   -6.3567    1.5733 H   0  0  0  0  0  0  0  0  0  0  0  0
    3.9259   -8.9826    3.6654 H   0  0  0  0  0  0  0  0  0  0  0  0
    2.0254   -3.5853    3.3102 H   0  0  0  0  0  0  0  0  0  0  0  0
    1.7395   -6.3880    8.0929 H   0  0  0  0  0  0  0  0  0  0  0  0
    1.7871   -4.6951    7.5939 H   0  0  0  0  0  0  0  0  0  0  0  0
    2.8566   -5.8482    6.8402 H   0  0  0  0  0  0  0  0  0  0  0  0
   -0.9255   -6.1126    7.5534 H   0  0  0  0  0  0  0  0  0  0  0  0
   -1.3647   -5.5523    5.9386 H   0  0  0  0  0  0  0  0  0  0  0  0
   -0.5288   -4.4766    7.0370 H   0  0  0  0  0  0  0  0  0  0  0  0
    0.5267   -8.1100    6.5931 H   0  0  0  0  0  0  0  0  0  0  0  0
   -1.3615   -7.9720    5.2512 H   0  0  0  0  0  0  0  0  0  0  0  0
   -0.6179   -6.8994    4.0754 H   0  0  0  0  0  0  0  0  0  0  0  0
   -1.0206   -9.1560    3.0783 H   0  0  0  0  0  0  0  0  0  0  0  0
    1.3091  -11.7704    3.3656 H   0  0  0  0  0  0  0  0  0  0  0  0
    1.9449  -10.6416    2.1626 H   0  0  0  0  0  0  0  0  0  0  0  0
    0.2163  -11.0079    2.1979 H   0  0  0  0  0  0  0  0  0  0  0  0
    1.7961  -10.0000    5.6118 H   0  0  0  0  0  0  0  0  0  0  0  0
    2.9668   -9.8224    4.3783 H   0  0  0  0  0  0  0  0  0  0  0  0
    2.8174   -7.8888    5.9612 H   0  0  0  0  0  0  0  0  0  0  0  0
  1  2  1  0
  1 26  1  0
  1 27  1  0
  1 28  1  0
  2  3  1  0
  2 29  1  0
  2 30  1  0
  3  4  1  0
  3 31  1  0
  3 32  1  0
  4  5  1  0
  4 33  1  0
  4 34  1  0
  5  6  1  0
  5 35  1  0
  5 36  1  0
  6  7  1  0
  6  8  1  0
  6 37  1  1
  7 38  1  0
  7 39  1  0
  7 40  1  0
  8 14  2  0
  8  9  1  0
  9 10  2  0
  9 41  1  0
 10 11  1  0
 10 12  1  0
 11 42  1  0
 12 25  1  0
 12 13  2  0
 13 14  1  0
 13 15  1  0
 14 43  1  0
 15 16  1  0
 16 17  1  0
 16 18  1  0
 16 19  1  0
 17 44  1  0
 17 45  1  0
 17 46  1  0
 18 47  1  0
 18 48  1  0
 18 49  1  0
 19 25  1  0
 19 20  1  0
 19 50  1  1
 20 21  1  0
 20 51  1  0
 20 52  1  0
 21 22  2  0
 21 53  1  0
 22 23  1  0
 22 24  1  0
 23 54  1  0
 23 55  1  0
 23 56  1  0
 24 25  1  0
 24 57  1  0
 24 58  1  0
 25 59  1  1
M  END
>  <i_m_ct_stereo_status>  (279) 
1

>  <s_m_source_file>  (279) 
/var/tmp/pbs.5076255.sched01/tmpgyl_4d9e/126kfdajayx.sdf

>  <i_m_source_file_index>  (279) 
20

>  <i_lp_mmshare_version>  (279) 
48012

>  <i_f3d_flags>  (279) 
0

>  <s_epik_input>  (279) 
W0NIM11bQ0gyXVtDSDJdW0NIMl1bQ0gyXVtDQEhdKFtDSDNdKWMoW2NIXWMxW09IXSlbY0hdYyhjMTIpT0MoW0NIM10pKFtDSDNdKVtDQEBIXTNbQ0BIXTJbQ0gyXUMoW0NIM10pPVtDSF1bQ0gyXTM=

>  <s_epik_cmdline>  (279) 
J2VwaWtfcHl0aG9uJywgJy1waHQnLCAnMi4wJywgJy1waCcsICc3LjAnLCAnLXRuJywgJzgnLCAnLW1hJywgJzIwMCcsICctaW1hZScsICc8aW5maWxlLm1hZT4nLCAnLW9tYWUnLCAnPG91dGZpbGUubWFlPic=

>  <r_lp_tautomer_probability>  (279) 
1

>  <r_epik_Ionization_Penalty>  (279) 
0.000214043

>  <r_epik_Ionization_Penalty_Charging>  (279) 
0

>  <r_epik_Ionization_Penalty_Neutral>  (279) 
0.000214043

>  <r_epik_State_Penalty>  (279) 
-0

>  <r_epik_Charging_Adjusted_Penalty>  (279) 
0

>  <i_epik_Tot_Q>  (279) 
0

>  <i_epik_Tot_abs_Q>  (279) 
0

>  <s_lp_Force_Field>  (279) 
OPLS3e

>  <r_lp_Energy>  (279) 
26.7225

>  <b_lp_Chiralities_Consistent>  (279) 
1

>  <s_lp_Variant>  (279) 
95:0-1

>  <s_i_glide_gridfile>  (279) 
pfpi4k_grid

>  <i_i_glide_lignum>  (279) 
20

>  <i_i_glide_rotatable_bonds>  (279) 
6

>  <r_i_docking_score>  (279) 
-2.09363

>  <r_i_glide_ligand_efficiency>  (279) 
-0.0837454

>  <r_i_glide_ligand_efficiency_sa>  (279) 
-0.244873

>  <r_i_glide_ligand_efficiency_ln>  (279) 
-0.496254

>  <r_i_glide_gscore>  (279) 
-2.09363

>  <r_i_glide_lipo>  (279) 
-0.51374

>  <r_i_glide_hbond>  (279) 
0

>  <r_i_glide_metal>  (279) 
-0

>  <r_i_glide_rewards>  (279) 
-1.07376

>  <r_i_glide_evdw>  (279) 
-21.8762

>  <r_i_glide_ecoul>  (279) 
-0.392635

>  <r_i_glide_erotb>  (279) 
0.646575

>  <r_i_glide_esite>  (279) 
0

>  <r_i_glide_emodel>  (279) 
-24.7402

>  <r_i_glide_energy>  (279) 
-22.2689

>  <r_i_glide_einternal>  (279) 
1.62124

>  <r_i_glide_intrahb_reward>  (279) 
-0

>  <i_i_glide_confnum>  (279) 
6

>  <i_i_glide_posenum>  (279) 
17

>  <r_i_glide_eff_state_penalty>  (279) 
0

>  <ligand_id>  (279) 
95

>  <original_smiles>  (279) 
CCCCCC(C)c1cc(O)c2c(c1)OC(C)(C)C1CC=C(C)CC21

>  <smiles>  (279) 
[H]Oc1c([H])c(C([H])(C([H])([H])[H])C([H])([H])C([H])([H])C([H])([H])C([H])([H])C([H])([H])[H])c([H])c2c1C1([H])C([H])([H])C(C([H])([H])[H])=C([H])C([H])([H])C1([H])C(C([H])([H])[H])(C([H])([H])[H])O2

$$$$
95:0:2
     RDKit          3D

 59 61  0  0  1  0  0  0  0  0999 V2000
   -0.8407   -9.0473    2.0786 C   0  0  0  0  0  0  0  0  0  0  0  0
   -1.4678   -8.9519    3.4613 C   0  0  0  0  0  0  0  0  0  0  0  0
   -1.4470   -7.5379    4.0540 C   0  0  0  0  0  0  0  0  0  0  0  0
   -0.0581   -7.1330    4.5778 C   0  0  0  0  0  0  0  0  0  0  0  0
   -0.0168   -5.6895    5.0985 C   0  0  0  0  0  0  0  0  0  0  0  0
    1.4025   -5.2114    5.4616 C   0  0  2  0  0  0  0  0  0  0  0  0
    1.7772   -5.5831    6.9038 C   0  0  0  0  0  0  0  0  0  0  0  0
    1.5702   -3.7204    5.1888 C   0  0  0  0  0  0  0  0  0  0  0  0
    0.9363   -2.7511    5.9887 C   0  0  0  0  0  0  0  0  0  0  0  0
    1.1068   -1.3764    5.7317 C   0  0  0  0  0  0  0  0  0  0  0  0
    0.4833   -0.5195    6.5907 O   0  0  0  0  0  0  0  0  0  0  0  0
    1.9123   -0.9306    4.6419 C   0  0  0  0  0  0  0  0  0  0  0  0
    2.5605   -1.9233    3.8482 C   0  0  0  0  0  0  0  0  0  0  0  0
    2.3785   -3.2906    4.1208 C   0  0  0  0  0  0  0  0  0  0  0  0
    3.3814   -1.6307    2.7794 O   0  0  0  0  0  0  0  0  0  0  0  0
    3.8529   -0.2956    2.6122 C   0  0  0  0  0  0  0  0  0  0  0  0
    5.0361   -0.0971    3.5927 C   0  0  0  0  0  0  0  0  0  0  0  0
    4.3833   -0.2307    1.1619 C   0  0  0  0  0  0  0  0  0  0  0  0
    2.6870    0.7003    2.8535 C   0  0  1  0  0  0  0  0  0  0  0  0
    1.5511    0.5402    1.7975 C   0  0  0  0  0  0  0  0  0  0  0  0
    0.1715    0.9783    2.2537 C   0  0  0  0  0  0  0  0  0  0  0  0
   -0.0980    1.4310    3.4891 C   0  0  0  0  0  0  0  0  0  0  0  0
   -1.4832    1.8569    3.9326 C   0  0  0  0  0  0  0  0  0  0  0  0
    1.0042    1.5678    4.5185 C   0  0  0  0  0  0  0  0  0  0  0  0
    2.1568    0.5552    4.2978 C   0  0  1  0  0  0  0  0  0  0  0  0
   -0.8992  -10.0761    1.7195 H   0  0  0  0  0  0  0  0  0  0  0  0
    0.2121   -8.7623    2.0877 H   0  0  0  0  0  0  0  0  0  0  0  0
   -1.3637   -8.4147    1.3618 H   0  0  0  0  0  0  0  0  0  0  0  0
   -2.4948   -9.3129    3.3983 H   0  0  0  0  0  0  0  0  0  0  0  0
   -0.9263   -9.6339    4.1100 H   0  0  0  0  0  0  0  0  0  0  0  0
   -1.8093   -6.8333    3.3055 H   0  0  0  0  0  0  0  0  0  0  0  0
   -2.1542   -7.4946    4.8809 H   0  0  0  0  0  0  0  0  0  0  0  0
    0.2491   -7.8224    5.3654 H   0  0  0  0  0  0  0  0  0  0  0  0
    0.6742   -7.2388    3.7767 H   0  0  0  0  0  0  0  0  0  0  0  0
   -0.3880   -5.0577    4.2970 H   0  0  0  0  0  0  0  0  0  0  0  0
   -0.7013   -5.5510    5.9367 H   0  0  0  0  0  0  0  0  0  0  0  0
    2.1136   -5.7146    4.8046 H   0  0  0  0  0  0  0  0  0  0  0  0
    2.7858   -5.2507    7.1426 H   0  0  0  0  0  0  0  0  0  0  0  0
    1.7377   -6.6610    7.0543 H   0  0  0  0  0  0  0  0  0  0  0  0
    1.0979   -5.1296    7.6215 H   0  0  0  0  0  0  0  0  0  0  0  0
    0.3204   -3.0595    6.8224 H   0  0  0  0  0  0  0  0  0  0  0  0
    0.6746    0.3852    6.3917 H   0  0  0  0  0  0  0  0  0  0  0  0
    2.8901   -4.0137    3.5029 H   0  0  0  0  0  0  0  0  0  0  0  0
    5.3887    0.9332    3.6088 H   0  0  0  0  0  0  0  0  0  0  0  0
    5.8740   -0.7434    3.3256 H   0  0  0  0  0  0  0  0  0  0  0  0
    4.7634   -0.3587    4.6156 H   0  0  0  0  0  0  0  0  0  0  0  0
    4.7048    0.7701    0.8803 H   0  0  0  0  0  0  0  0  0  0  0  0
    3.6202   -0.5366    0.4437 H   0  0  0  0  0  0  0  0  0  0  0  0
    5.2293   -0.9074    1.0268 H   0  0  0  0  0  0  0  0  0  0  0  0
    3.0700    1.7152    2.7455 H   0  0  0  0  0  0  0  0  0  0  0  0
    1.7940    1.1056    0.9002 H   0  0  0  0  0  0  0  0  0  0  0  0
    1.4479   -0.5012    1.4928 H   0  0  0  0  0  0  0  0  0  0  0  0
   -0.6152    0.8965    1.5123 H   0  0  0  0  0  0  0  0  0  0  0  0
   -1.4798    2.8876    4.2879 H   0  0  0  0  0  0  0  0  0  0  0  0
   -1.8305    1.2128    4.7402 H   0  0  0  0  0  0  0  0  0  0  0  0
   -2.1872    1.7769    3.1054 H   0  0  0  0  0  0  0  0  0  0  0  0
    1.4069    2.5709    4.3691 H   0  0  0  0  0  0  0  0  0  0  0  0
    0.6094    1.5990    5.5288 H   0  0  0  0  0  0  0  0  0  0  0  0
    2.9441    0.8761    4.9769 H   0  0  0  0  0  0  0  0  0  0  0  0
  1  2  1  0
  1 26  1  0
  1 27  1  0
  1 28  1  0
  2  3  1  0
  2 29  1  0
  2 30  1  0
  3  4  1  0
  3 31  1  0
  3 32  1  0
  4  5  1  0
  4 33  1  0
  4 34  1  0
  5  6  1  0
  5 35  1  0
  5 36  1  0
  6  7  1  0
  6  8  1  0
  6 37  1  6
  7 38  1  0
  7 39  1  0
  7 40  1  0
  8 14  2  0
  8  9  1  0
  9 10  2  0
  9 41  1  0
 10 11  1  0
 10 12  1  0
 11 42  1  0
 12 25  1  0
 12 13  2  0
 13 14  1  0
 13 15  1  0
 14 43  1  0
 15 16  1  0
 16 17  1  0
 16 18  1  0
 16 19  1  0
 17 44  1  0
 17 45  1  0
 17 46  1  0
 18 47  1  0
 18 48  1  0
 18 49  1  0
 19 25  1  0
 19 20  1  0
 19 50  1  1
 20 21  1  0
 20 51  1  0
 20 52  1  0
 21 22  2  0
 21 53  1  0
 22 23  1  0
 22 24  1  0
 23 54  1  0
 23 55  1  0
 23 56  1  0
 24 25  1  0
 24 57  1  0
 24 58  1  0
 25 59  1  1
M  END
>  <i_m_ct_stereo_status>  (280) 
1

>  <s_m_source_file>  (280) 
/var/tmp/pbs.5076255.sched01/tmpgyl_4d9e/126kfdajayx.sdf

>  <i_m_source_file_index>  (280) 
20

>  <i_lp_mmshare_version>  (280) 
48012

>  <i_f3d_flags>  (280) 
0

>  <s_epik_input>  (280) 
W0NIM11bQ0gyXVtDSDJdW0NIMl1bQ0gyXVtDQEhdKFtDSDNdKWMoW2NIXWMxW09IXSlbY0hdYyhjMTIpT0MoW0NIM10pKFtDSDNdKVtDQEBIXTNbQ0BIXTJbQ0gyXUMoW0NIM10pPVtDSF1bQ0gyXTM=

>  <s_epik_cmdline>  (280) 
J2VwaWtfcHl0aG9uJywgJy1waHQnLCAnMi4wJywgJy1waCcsICc3LjAnLCAnLXRuJywgJzgnLCAnLW1hJywgJzIwMCcsICctaW1hZScsICc8aW5maWxlLm1hZT4nLCAnLW9tYWUnLCAnPG91dGZpbGUubWFlPic=

>  <r_lp_tautomer_probability>  (280) 
1

>  <r_epik_Ionization_Penalty>  (280) 
0.000214043

>  <r_epik_Ionization_Penalty_Charging>  (280) 
0

>  <r_epik_Ionization_Penalty_Neutral>  (280) 
0.000214043

>  <r_epik_State_Penalty>  (280) 
-0

>  <r_epik_Charging_Adjusted_Penalty>  (280) 
0

>  <i_epik_Tot_Q>  (280) 
0

>  <i_epik_Tot_abs_Q>  (280) 
0

>  <s_lp_Force_Field>  (280) 
OPLS3e

>  <r_lp_Energy>  (280) 
26.7225

>  <b_lp_Chiralities_Consistent>  (280) 
1

>  <s_lp_Variant>  (280) 
95:0-1

>  <s_i_glide_gridfile>  (280) 
pfpi4k_grid

>  <i_i_glide_lignum>  (280) 
20

>  <i_i_glide_rotatable_bonds>  (280) 
6

>  <r_i_docking_score>  (280) 
-1.83981

>  <r_i_glide_ligand_efficiency>  (280) 
-0.0735924

>  <r_i_glide_ligand_efficiency_sa>  (280) 
-0.215186

>  <r_i_glide_ligand_efficiency_ln>  (280) 
-0.43609

>  <r_i_glide_gscore>  (280) 
-1.83981

>  <r_i_glide_lipo>  (280) 
-0.315746

>  <r_i_glide_hbond>  (280) 
0

>  <r_i_glide_metal>  (280) 
-0

>  <r_i_glide_rewards>  (280) 
-1.07376

>  <r_i_glide_evdw>  (280) 
-20.1106

>  <r_i_glide_ecoul>  (280) 
-0.608984

>  <r_i_glide_erotb>  (280) 
0.646575

>  <r_i_glide_esite>  (280) 
0

>  <r_i_glide_emodel>  (280) 
-22.0324

>  <r_i_glide_energy>  (280) 
-20.7196

>  <r_i_glide_einternal>  (280) 
3.00016

>  <r_i_glide_intrahb_reward>  (280) 
-0

>  <i_i_glide_confnum>  (280) 
6

>  <i_i_glide_posenum>  (280) 
3

>  <r_i_glide_eff_state_penalty>  (280) 
0

>  <ligand_id>  (280) 
95

>  <original_smiles>  (280) 
CCCCCC(C)c1cc(O)c2c(c1)OC(C)(C)C1CC=C(C)CC21

>  <smiles>  (280) 
[H]Oc1c([H])c(C([H])(C([H])([H])[H])C([H])([H])C([H])([H])C([H])([H])C([H])([H])C([H])([H])[H])c([H])c2c1C1([H])C([H])([H])C(C([H])([H])[H])=C([H])C([H])([H])C1([H])C(C([H])([H])[H])(C([H])([H])[H])O2

$$$$
96:0:0
     RDKit          3D

 53 56  0  0  1  0  0  0  0  0999 V2000
    7.5673   -7.6143    3.6514 C   0  0  0  0  0  0  0  0  0  0  0  0
    7.0231   -6.4506    2.8026 C   0  0  2  0  0  0  0  0  0  0  0  0
    8.1510   -5.6154    2.1460 C   0  0  0  0  0  0  0  0  0  0  0  0
    7.6288   -4.4230    1.2951 C   0  0  0  0  0  0  0  0  0  0  0  0
    6.3682   -4.7217    0.4491 C   0  0  1  0  0  0  0  0  0  0  0  0
    5.3649   -5.6040    1.2729 C   0  0  2  0  0  0  0  0  0  0  0  0
    4.1507   -5.9260    0.4137 C   0  0  0  0  0  0  0  0  0  0  0  0
    3.5000   -4.6500   -0.1058 C   0  0  0  0  0  0  0  0  0  0  0  0
    4.4303   -3.8740   -1.0820 C   0  0  1  0  0  0  0  0  0  0  0  0
    3.6716   -2.6897   -1.8073 C   0  0  0  0  0  0  0  0  0  0  0  0
    4.3718   -2.2256   -3.1104 C   0  0  0  0  0  0  0  0  0  0  0  0
    2.2462   -3.0835   -2.2682 C   0  0  0  0  0  0  0  0  0  0  0  0
    3.5243   -1.5110   -0.8244 C   0  0  0  0  0  0  0  0  0  0  0  0
    4.8364   -1.0679   -0.1738 C   0  0  0  0  0  0  0  0  0  0  0  0
    5.5322   -2.2348    0.5394 C   0  0  0  0  0  0  0  0  0  0  0  0
    5.7845   -3.4795   -0.3621 C   0  0  1  0  0  0  0  0  0  0  0  0
    6.8609   -3.1058   -1.4245 C   0  0  0  0  0  0  0  0  0  0  0  0
    4.9696   -5.0314    2.6593 C   0  0  0  0  0  0  0  0  0  0  0  0
    6.0587   -5.5568    3.5789 C   0  0  0  0  0  0  0  0  0  0  0  0
    6.1372   -5.2977    4.7783 O   0  0  0  0  0  0  0  0  0  0  0  0
    6.1010   -6.9095    1.6789 C   0  0  0  0  0  0  0  0  0  0  0  0
    8.0686   -8.3571    3.0322 H   0  0  0  0  0  0  0  0  0  0  0  0
    6.7653   -8.1241    4.1882 H   0  0  0  0  0  0  0  0  0  0  0  0
    8.2839   -7.2700    4.3986 H   0  0  0  0  0  0  0  0  0  0  0  0
    8.8198   -5.2333    2.9211 H   0  0  0  0  0  0  0  0  0  0  0  0
    8.7698   -6.2684    1.5308 H   0  0  0  0  0  0  0  0  0  0  0  0
    7.3635   -3.6116    1.9644 H   0  0  0  0  0  0  0  0  0  0  0  0
    8.4633   -4.0677    0.6970 H   0  0  0  0  0  0  0  0  0  0  0  0
    6.7171   -5.4023   -0.3139 H   0  0  0  0  0  0  0  0  0  0  0  0
    4.4648   -6.5363   -0.4353 H   0  0  0  0  0  0  0  0  0  0  0  0
    3.4304   -6.5181    0.9767 H   0  0  0  0  0  0  0  0  0  0  0  0
    2.5958   -4.9776   -0.6097 H   0  0  0  0  0  0  0  0  0  0  0  0
    3.1902   -4.0219    0.7258 H   0  0  0  0  0  0  0  0  0  0  0  0
    4.6765   -4.5937   -1.8652 H   0  0  0  0  0  0  0  0  0  0  0  0
    3.6668   -1.8354   -3.8413 H   0  0  0  0  0  0  0  0  0  0  0  0
    4.9180   -3.0371   -3.5862 H   0  0  0  0  0  0  0  0  0  0  0  0
    5.0513   -1.3998   -2.9320 H   0  0  0  0  0  0  0  0  0  0  0  0
    1.7910   -2.2924   -2.8604 H   0  0  0  0  0  0  0  0  0  0  0  0
    1.5761   -3.2399   -1.4215 H   0  0  0  0  0  0  0  0  0  0  0  0
    2.2374   -3.9817   -2.8808 H   0  0  0  0  0  0  0  0  0  0  0  0
    3.0609   -0.6721   -1.3403 H   0  0  0  0  0  0  0  0  0  0  0  0
    2.8328   -1.7932   -0.0267 H   0  0  0  0  0  0  0  0  0  0  0  0
    5.4891   -0.6059   -0.9083 H   0  0  0  0  0  0  0  0  0  0  0  0
    4.6154   -0.2873    0.5514 H   0  0  0  0  0  0  0  0  0  0  0  0
    6.4603   -1.8715    0.9756 H   0  0  0  0  0  0  0  0  0  0  0  0
    4.8833   -2.5049    1.3640 H   0  0  0  0  0  0  0  0  0  0  0  0
    6.7071   -2.1415   -1.8811 H   0  0  0  0  0  0  0  0  0  0  0  0
    6.8726   -3.8364   -2.2320 H   0  0  0  0  0  0  0  0  0  0  0  0
    7.8687   -3.0614   -1.0244 H   0  0  0  0  0  0  0  0  0  0  0  0
    4.9234   -3.9527    2.7239 H   0  0  0  0  0  0  0  0  0  0  0  0
    4.0158   -5.4354    2.9936 H   0  0  0  0  0  0  0  0  0  0  0  0
    6.6658   -7.3732    0.8806 H   0  0  0  0  0  0  0  0  0  0  0  0
    5.3891   -7.6476    2.0528 H   0  0  0  0  0  0  0  0  0  0  0  0
  2  1  1  1
  1 22  1  0
  1 23  1  0
  1 24  1  0
  2 19  1  0
  2 21  1  0
  2  3  1  0
  3  4  1  0
  3 25  1  0
  3 26  1  0
  4  5  1  0
  4 27  1  0
  4 28  1  0
  5 16  1  0
  5  6  1  0
  5 29  1  6
  6  7  1  6
  6 18  1  0
  6 21  1  0
  7  8  1  0
  7 30  1  0
  7 31  1  0
  8  9  1  0
  8 32  1  0
  8 33  1  0
  9 16  1  0
  9 10  1  0
  9 34  1  6
 10 11  1  0
 10 12  1  0
 10 13  1  0
 11 35  1  0
 11 36  1  0
 11 37  1  0
 12 38  1  0
 12 39  1  0
 12 40  1  0
 13 14  1  0
 13 41  1  0
 13 42  1  0
 14 15  1  0
 14 43  1  0
 14 44  1  0
 15 16  1  0
 15 45  1  0
 15 46  1  0
 16 17  1  6
 17 47  1  0
 17 48  1  0
 17 49  1  0
 18 19  1  0
 18 50  1  0
 18 51  1  0
 19 20  2  0
 21 52  1  0
 21 53  1  0
M  END
>  <i_m_ct_stereo_status>  (281) 
1

>  <s_m_source_file>  (281) 
/var/tmp/pbs.5076255.sched01/tmpgyl_4d9e/126kfdajayx.sdf

>  <i_m_source_file_index>  (281) 
21

>  <i_lp_mmshare_version>  (281) 
48012

>  <i_f3d_flags>  (281) 
0

>  <s_epik_input>  (281) 
W0NIMl0xQyg9TylbQ0BAXShbQ0gzXSkoW0NIMl0yKVtDSDJdW0NIMl1bQ0BASF0oW0NAXTEyMylbQ0BAXTQoW0NIM10pW0NAQEhdKFtDSDJdW0NIMl0zKUMoW0NIM10pKFtDSDNdKVtDSDJdW0NIMl1bQ0gyXTQ=

>  <s_epik_cmdline>  (281) 
J2VwaWtfcHl0aG9uJywgJy1waHQnLCAnMi4wJywgJy1waCcsICc3LjAnLCAnLXRuJywgJzgnLCAnLW1hJywgJzIwMCcsICctaW1hZScsICc8aW5maWxlLm1hZT4nLCAnLW9tYWUnLCAnPG91dGZpbGUubWFlPic=

>  <r_lp_tautomer_probability>  (281) 
1

>  <r_epik_Ionization_Penalty>  (281) 
1.6971e-14

>  <r_epik_Ionization_Penalty_Charging>  (281) 
0

>  <r_epik_Ionization_Penalty_Neutral>  (281) 
1.6971e-14

>  <r_epik_State_Penalty>  (281) 
-0

>  <r_epik_Charging_Adjusted_Penalty>  (281) 
0

>  <i_epik_Tot_Q>  (281) 
0

>  <i_epik_Tot_abs_Q>  (281) 
0

>  <s_lp_Force_Field>  (281) 
OPLS3e

>  <r_lp_Energy>  (281) 
56.7451

>  <b_lp_Chiralities_Consistent>  (281) 
1

>  <s_lp_Variant>  (281) 
96:0-1

>  <s_i_glide_gridfile>  (281) 
pfpi4k_grid

>  <i_i_glide_lignum>  (281) 
21

>  <i_i_glide_rotatable_bonds>  (281) 
0

>  <r_i_docking_score>  (281) 
-3.48888

>  <r_i_glide_ligand_efficiency>  (281) 
-0.166137

>  <r_i_glide_ligand_efficiency_sa>  (281) 
-0.45836

>  <r_i_glide_ligand_efficiency_ln>  (281) 
-0.862619

>  <r_i_glide_gscore>  (281) 
-3.48888

>  <r_i_glide_lipo>  (281) 
-0.895111

>  <r_i_glide_hbond>  (281) 
0

>  <r_i_glide_metal>  (281) 
-0

>  <r_i_glide_rewards>  (281) 
-1.44864

>  <r_i_glide_evdw>  (281) 
-21.9046

>  <r_i_glide_ecoul>  (281) 
-0.332697

>  <r_i_glide_erotb>  (281) 
0

>  <r_i_glide_esite>  (281) 
0

>  <r_i_glide_emodel>  (281) 
-26.916

>  <r_i_glide_energy>  (281) 
-22.2373

>  <r_i_glide_einternal>  (281) 
0

>  <r_i_glide_intrahb_reward>  (281) 
-0

>  <i_i_glide_confnum>  (281) 
1

>  <i_i_glide_posenum>  (281) 
5

>  <r_i_glide_eff_state_penalty>  (281) 
0

>  <ligand_id>  (281) 
96

>  <original_smiles>  (281) 
CC12CCC3C(CCC4C(C)(C)CCCC43C)(CC1=O)C2

>  <smiles>  (281) 
[H]C([H])([H])C12C(=O)C([H])([H])C3(C([H])([H])C([H])([H])C4([H])C(C([H])([H])[H])(C([H])([H])[H])C([H])([H])C([H])([H])C([H])([H])C4(C([H])([H])[H])C3([H])C([H])([H])C1([H])[H])C2([H])[H]

$$$$
96:0:1
     RDKit          3D

 53 56  0  0  1  0  0  0  0  0999 V2000
    3.4921   -5.8321    5.4817 C   0  0  0  0  0  0  0  0  0  0  0  0
    3.7333   -5.0140    4.1997 C   0  0  2  0  0  0  0  0  0  0  0  0
    5.2203   -4.6615    3.9858 C   0  0  0  0  0  0  0  0  0  0  0  0
    5.4784   -3.8125    2.7149 C   0  0  0  0  0  0  0  0  0  0  0  0
    4.6574   -4.2386    1.4672 C   0  0  1  0  0  0  0  0  0  0  0  0
    3.1931   -4.5802    1.8906 C   0  0  2  0  0  0  0  0  0  0  0  0
    2.4197   -5.0339    0.6600 C   0  0  0  0  0  0  0  0  0  0  0  0
    2.4522   -3.9596   -0.4230 C   0  0  0  0  0  0  0  0  0  0  0  0
    3.8793   -3.7485   -0.9843 C   0  0  1  0  0  0  0  0  0  0  0  0
    3.8693   -2.8251   -2.2732 C   0  0  0  0  0  0  0  0  0  0  0  0
    5.1353   -3.0399   -3.1205 C   0  0  0  0  0  0  0  0  0  0  0  0
    2.6835   -3.1114   -3.2349 C   0  0  0  0  0  0  0  0  0  0  0  0
    3.7508   -1.3489   -1.8531 C   0  0  0  0  0  0  0  0  0  0  0  0
    4.7547   -0.9251   -0.7773 C   0  0  0  0  0  0  0  0  0  0  0  0
    4.6835   -1.8160    0.4661 C   0  0  0  0  0  0  0  0  0  0  0  0
    4.8686   -3.3288    0.1766 C   0  0  1  0  0  0  0  0  0  0  0  0
    6.3312   -3.5894   -0.2681 C   0  0  0  0  0  0  0  0  0  0  0  0
    2.4816   -3.4621    2.7046 C   0  0  0  0  0  0  0  0  0  0  0  0
    2.8754   -3.7485    4.1414 C   0  0  0  0  0  0  0  0  0  0  0  0
    2.5518   -3.0632    5.1058 O   0  0  0  0  0  0  0  0  0  0  0  0
    3.2494   -5.7199    2.9321 C   0  0  0  0  0  0  0  0  0  0  0  0
    3.9360   -6.8245    5.4078 H   0  0  0  0  0  0  0  0  0  0  0  0
    2.4302   -5.9625    5.6757 H   0  0  0  0  0  0  0  0  0  0  0  0
    3.9257   -5.3444    6.3527 H   0  0  0  0  0  0  0  0  0  0  0  0
    5.6112   -4.1317    4.8527 H   0  0  0  0  0  0  0  0  0  0  0  0
    5.8001   -5.5870    3.9192 H   0  0  0  0  0  0  0  0  0  0  0  0
    5.2775   -2.7657    2.9560 H   0  0  0  0  0  0  0  0  0  0  0  0
    6.5372   -3.8914    2.4884 H   0  0  0  0  0  0  0  0  0  0  0  0
    5.0778   -5.2030    1.1758 H   0  0  0  0  0  0  0  0  0  0  0  0
    2.8386   -5.9594    0.2701 H   0  0  0  0  0  0  0  0  0  0  0  0
    1.4028   -5.2612    0.9604 H   0  0  0  0  0  0  0  0  0  0  0  0
    1.7700   -4.3041   -1.1972 H   0  0  0  0  0  0  0  0  0  0  0  0
    2.0462   -3.0206   -0.0458 H   0  0  0  0  0  0  0  0  0  0  0  0
    4.2183   -4.7291   -1.3149 H   0  0  0  0  0  0  0  0  0  0  0  0
    4.9536   -2.8605   -4.1763 H   0  0  0  0  0  0  0  0  0  0  0  0
    5.5207   -4.0575   -3.0439 H   0  0  0  0  0  0  0  0  0  0  0  0
    5.9243   -2.3461   -2.8603 H   0  0  0  0  0  0  0  0  0  0  0  0
    2.7665   -2.5457   -4.1675 H   0  0  0  0  0  0  0  0  0  0  0  0
    1.7199   -2.8291   -2.8092 H   0  0  0  0  0  0  0  0  0  0  0  0
    2.6337   -4.1647   -3.5263 H   0  0  0  0  0  0  0  0  0  0  0  0
    3.8379   -0.6994   -2.7272 H   0  0  0  0  0  0  0  0  0  0  0  0
    2.7463   -1.1782   -1.4721 H   0  0  0  0  0  0  0  0  0  0  0  0
    5.7609   -0.8897   -1.1827 H   0  0  0  0  0  0  0  0  0  0  0  0
    4.5237    0.0919   -0.4706 H   0  0  0  0  0  0  0  0  0  0  0  0
    5.4258   -1.4634    1.1795 H   0  0  0  0  0  0  0  0  0  0  0  0
    3.7154   -1.6298    0.9133 H   0  0  0  0  0  0  0  0  0  0  0  0
    6.6931   -2.8884   -1.0057 H   0  0  0  0  0  0  0  0  0  0  0  0
    6.4202   -4.5858   -0.6959 H   0  0  0  0  0  0  0  0  0  0  0  0
    7.0563   -3.5056    0.5352 H   0  0  0  0  0  0  0  0  0  0  0  0
    2.7579   -2.4452    2.4420 H   0  0  0  0  0  0  0  0  0  0  0  0
    1.3992   -3.5400    2.6263 H   0  0  0  0  0  0  0  0  0  0  0  0
    3.9058   -6.5397    2.6304 H   0  0  0  0  0  0  0  0  0  0  0  0
    2.2591   -6.1467    3.0918 H   0  0  0  0  0  0  0  0  0  0  0  0
  2  1  1  1
  1 22  1  0
  1 23  1  0
  1 24  1  0
  2 19  1  0
  2 21  1  0
  2  3  1  0
  3  4  1  0
  3 25  1  0
  3 26  1  0
  4  5  1  0
  4 27  1  0
  4 28  1  0
  5 16  1  0
  5  6  1  0
  5 29  1  6
  6  7  1  6
  6 18  1  0
  6 21  1  0
  7  8  1  0
  7 30  1  0
  7 31  1  0
  8  9  1  0
  8 32  1  0
  8 33  1  0
  9 16  1  0
  9 10  1  0
  9 34  1  6
 10 11  1  0
 10 12  1  0
 10 13  1  0
 11 35  1  0
 11 36  1  0
 11 37  1  0
 12 38  1  0
 12 39  1  0
 12 40  1  0
 13 14  1  0
 13 41  1  0
 13 42  1  0
 14 15  1  0
 14 43  1  0
 14 44  1  0
 15 16  1  0
 15 45  1  0
 15 46  1  0
 16 17  1  6
 17 47  1  0
 17 48  1  0
 17 49  1  0
 18 19  1  0
 18 50  1  0
 18 51  1  0
 19 20  2  0
 21 52  1  0
 21 53  1  0
M  END
>  <i_m_ct_stereo_status>  (282) 
1

>  <s_m_source_file>  (282) 
/var/tmp/pbs.5076255.sched01/tmpgyl_4d9e/126kfdajayx.sdf

>  <i_m_source_file_index>  (282) 
21

>  <i_lp_mmshare_version>  (282) 
48012

>  <i_f3d_flags>  (282) 
0

>  <s_epik_input>  (282) 
W0NIMl0xQyg9TylbQ0BAXShbQ0gzXSkoW0NIMl0yKVtDSDJdW0NIMl1bQ0BASF0oW0NAXTEyMylbQ0BAXTQoW0NIM10pW0NAQEhdKFtDSDJdW0NIMl0zKUMoW0NIM10pKFtDSDNdKVtDSDJdW0NIMl1bQ0gyXTQ=

>  <s_epik_cmdline>  (282) 
J2VwaWtfcHl0aG9uJywgJy1waHQnLCAnMi4wJywgJy1waCcsICc3LjAnLCAnLXRuJywgJzgnLCAnLW1hJywgJzIwMCcsICctaW1hZScsICc8aW5maWxlLm1hZT4nLCAnLW9tYWUnLCAnPG91dGZpbGUubWFlPic=

>  <r_lp_tautomer_probability>  (282) 
1

>  <r_epik_Ionization_Penalty>  (282) 
1.6971e-14

>  <r_epik_Ionization_Penalty_Charging>  (282) 
0

>  <r_epik_Ionization_Penalty_Neutral>  (282) 
1.6971e-14

>  <r_epik_State_Penalty>  (282) 
-0

>  <r_epik_Charging_Adjusted_Penalty>  (282) 
0

>  <i_epik_Tot_Q>  (282) 
0

>  <i_epik_Tot_abs_Q>  (282) 
0

>  <s_lp_Force_Field>  (282) 
OPLS3e

>  <r_lp_Energy>  (282) 
56.7451

>  <b_lp_Chiralities_Consistent>  (282) 
1

>  <s_lp_Variant>  (282) 
96:0-1

>  <s_i_glide_gridfile>  (282) 
pfpi4k_grid

>  <i_i_glide_lignum>  (282) 
21

>  <i_i_glide_rotatable_bonds>  (282) 
0

>  <r_i_docking_score>  (282) 
-2.97412

>  <r_i_glide_ligand_efficiency>  (282) 
-0.141625

>  <r_i_glide_ligand_efficiency_sa>  (282) 
-0.390732

>  <r_i_glide_ligand_efficiency_ln>  (282) 
-0.735345

>  <r_i_glide_gscore>  (282) 
-2.97412

>  <r_i_glide_lipo>  (282) 
-0.514603

>  <r_i_glide_hbond>  (282) 
0

>  <r_i_glide_metal>  (282) 
-0

>  <r_i_glide_rewards>  (282) 
-1.44246

>  <r_i_glide_evdw>  (282) 
-19.3576

>  <r_i_glide_ecoul>  (282) 
-0.327818

>  <r_i_glide_erotb>  (282) 
0

>  <r_i_glide_esite>  (282) 
0

>  <r_i_glide_emodel>  (282) 
-23.6652

>  <r_i_glide_energy>  (282) 
-19.6854

>  <r_i_glide_einternal>  (282) 
0

>  <r_i_glide_intrahb_reward>  (282) 
-0

>  <i_i_glide_confnum>  (282) 
1

>  <i_i_glide_posenum>  (282) 
20

>  <r_i_glide_eff_state_penalty>  (282) 
0

>  <ligand_id>  (282) 
96

>  <original_smiles>  (282) 
CC12CCC3C(CCC4C(C)(C)CCCC43C)(CC1=O)C2

>  <smiles>  (282) 
[H]C([H])([H])C12C(=O)C([H])([H])C3(C([H])([H])C([H])([H])C4([H])C(C([H])([H])[H])(C([H])([H])[H])C([H])([H])C([H])([H])C([H])([H])C4(C([H])([H])[H])C3([H])C([H])([H])C1([H])[H])C2([H])[H]

$$$$
96:0:2
     RDKit          3D

 53 56  0  0  1  0  0  0  0  0999 V2000
    2.7802   -7.4875    5.0824 C   0  0  0  0  0  0  0  0  0  0  0  0
    3.2324   -6.3872    4.1039 C   0  0  2  0  0  0  0  0  0  0  0  0
    4.7455   -6.0831    4.2048 C   0  0  0  0  0  0  0  0  0  0  0  0
    5.2222   -4.9597    3.2480 C   0  0  0  0  0  0  0  0  0  0  0  0
    4.5830   -5.0105    1.8205 C   0  0  1  0  0  0  0  0  0  0  0  0
    3.0562   -5.3535    1.9316 C   0  0  2  0  0  0  0  0  0  0  0  0
    2.4417   -5.4262    0.5378 C   0  0  0  0  0  0  0  0  0  0  0  0
    2.6681   -4.1263   -0.2270 C   0  0  0  0  0  0  0  0  0  0  0  0
    4.1739   -3.8813   -0.5180 C   0  0  1  0  0  0  0  0  0  0  0  0
    4.3893   -2.6609   -1.5026 C   0  0  0  0  0  0  0  0  0  0  0  0
    5.7755   -2.7105   -2.1937 C   0  0  0  0  0  0  0  0  0  0  0  0
    3.3625   -2.6608   -2.6652 C   0  0  0  0  0  0  0  0  0  0  0  0
    4.2173   -1.3296   -0.7389 C   0  0  0  0  0  0  0  0  0  0  0  0
    5.0700   -1.2369    0.5321 C   0  0  0  0  0  0  0  0  0  0  0  0
    4.8070   -2.4192    1.4768 C   0  0  0  0  0  0  0  0  0  0  0  0
    4.9979   -3.8254    0.8364 C   0  0  1  0  0  0  0  0  0  0  0  0
    6.5091   -4.0452    0.5411 C   0  0  0  0  0  0  0  0  0  0  0  0
    2.2532   -4.4387    2.8987 C   0  0  0  0  0  0  0  0  0  0  0  0
    2.4206   -5.1025    4.2503 C   0  0  0  0  0  0  0  0  0  0  0  0
    1.9587   -4.6649    5.3032 O   0  0  0  0  0  0  0  0  0  0  0  0
    2.9297   -6.7222    2.6390 C   0  0  0  0  0  0  0  0  0  0  0  0
    3.2073   -8.4549    4.8194 H   0  0  0  0  0  0  0  0  0  0  0  0
    1.6966   -7.6005    5.0857 H   0  0  0  0  0  0  0  0  0  0  0  0
    3.0858   -7.2625    6.1036 H   0  0  0  0  0  0  0  0  0  0  0  0
    5.0027   -5.8160    5.2300 H   0  0  0  0  0  0  0  0  0  0  0  0
    5.3030   -6.9973    3.9904 H   0  0  0  0  0  0  0  0  0  0  0  0
    5.0033   -4.0019    3.7189 H   0  0  0  0  0  0  0  0  0  0  0  0
    6.3063   -5.0343    3.1992 H   0  0  0  0  0  0  0  0  0  0  0  0
    5.0199   -5.8967    1.3566 H   0  0  0  0  0  0  0  0  0  0  0  0
    2.8890   -6.2536   -0.0113 H   0  0  0  0  0  0  0  0  0  0  0  0
    1.3781   -5.6440    0.6094 H   0  0  0  0  0  0  0  0  0  0  0  0
    2.0979   -4.2333   -1.1473 H   0  0  0  0  0  0  0  0  0  0  0  0
    2.2326   -3.2829    0.3108 H   0  0  0  0  0  0  0  0  0  0  0  0
    4.4976   -4.7714   -1.0604 H   0  0  0  0  0  0  0  0  0  0  0  0
    5.7463   -2.2584   -3.1812 H   0  0  0  0  0  0  0  0  0  0  0  0
    6.1304   -3.7323   -2.3305 H   0  0  0  0  0  0  0  0  0  0  0  0
    6.5376   -2.1521   -1.6595 H   0  0  0  0  0  0  0  0  0  0  0  0
    3.5973   -1.9036   -3.4159 H   0  0  0  0  0  0  0  0  0  0  0  0
    2.3530   -2.4221   -2.3242 H   0  0  0  0  0  0  0  0  0  0  0  0
    3.3331   -3.6281   -3.1729 H   0  0  0  0  0  0  0  0  0  0  0  0
    4.4433   -0.4888   -1.3953 H   0  0  0  0  0  0  0  0  0  0  0  0
    3.1685   -1.2045   -0.4580 H   0  0  0  0  0  0  0  0  0  0  0  0
    6.1269   -1.1583    0.2890 H   0  0  0  0  0  0  0  0  0  0  0  0
    4.8243   -0.3091    1.0466 H   0  0  0  0  0  0  0  0  0  0  0  0
    5.4407   -2.3055    2.3541 H   0  0  0  0  0  0  0  0  0  0  0  0
    3.7858   -2.3029    1.8195 H   0  0  0  0  0  0  0  0  0  0  0  0
    6.9936   -3.1829    0.1012 H   0  0  0  0  0  0  0  0  0  0  0  0
    6.6573   -4.8881   -0.1323 H   0  0  0  0  0  0  0  0  0  0  0  0
    7.0968   -4.2448    1.4324 H   0  0  0  0  0  0  0  0  0  0  0  0
    2.5866   -3.4076    2.9453 H   0  0  0  0  0  0  0  0  0  0  0  0
    1.1928   -4.4350    2.6522 H   0  0  0  0  0  0  0  0  0  0  0  0
    3.6044   -7.4782    2.2337 H   0  0  0  0  0  0  0  0  0  0  0  0
    1.9167   -7.1171    2.5437 H   0  0  0  0  0  0  0  0  0  0  0  0
  2  1  1  1
  1 22  1  0
  1 23  1  0
  1 24  1  0
  2 19  1  0
  2 21  1  0
  2  3  1  0
  3  4  1  0
  3 25  1  0
  3 26  1  0
  4  5  1  0
  4 27  1  0
  4 28  1  0
  5 16  1  0
  5  6  1  0
  5 29  1  6
  6  7  1  6
  6 18  1  0
  6 21  1  0
  7  8  1  0
  7 30  1  0
  7 31  1  0
  8  9  1  0
  8 32  1  0
  8 33  1  0
  9 16  1  0
  9 10  1  0
  9 34  1  6
 10 11  1  0
 10 12  1  0
 10 13  1  0
 11 35  1  0
 11 36  1  0
 11 37  1  0
 12 38  1  0
 12 39  1  0
 12 40  1  0
 13 14  1  0
 13 41  1  0
 13 42  1  0
 14 15  1  0
 14 43  1  0
 14 44  1  0
 15 16  1  0
 15 45  1  0
 15 46  1  0
 16 17  1  6
 17 47  1  0
 17 48  1  0
 17 49  1  0
 18 19  1  0
 18 50  1  0
 18 51  1  0
 19 20  2  0
 21 52  1  0
 21 53  1  0
M  END
>  <i_m_ct_stereo_status>  (283) 
1

>  <s_m_source_file>  (283) 
/var/tmp/pbs.5076255.sched01/tmpgyl_4d9e/126kfdajayx.sdf

>  <i_m_source_file_index>  (283) 
21

>  <i_lp_mmshare_version>  (283) 
48012

>  <i_f3d_flags>  (283) 
0

>  <s_epik_input>  (283) 
W0NIMl0xQyg9TylbQ0BAXShbQ0gzXSkoW0NIMl0yKVtDSDJdW0NIMl1bQ0BASF0oW0NAXTEyMylbQ0BAXTQoW0NIM10pW0NAQEhdKFtDSDJdW0NIMl0zKUMoW0NIM10pKFtDSDNdKVtDSDJdW0NIMl1bQ0gyXTQ=

>  <s_epik_cmdline>  (283) 
J2VwaWtfcHl0aG9uJywgJy1waHQnLCAnMi4wJywgJy1waCcsICc3LjAnLCAnLXRuJywgJzgnLCAnLW1hJywgJzIwMCcsICctaW1hZScsICc8aW5maWxlLm1hZT4nLCAnLW9tYWUnLCAnPG91dGZpbGUubWFlPic=

>  <r_lp_tautomer_probability>  (283) 
1

>  <r_epik_Ionization_Penalty>  (283) 
1.6971e-14

>  <r_epik_Ionization_Penalty_Charging>  (283) 
0

>  <r_epik_Ionization_Penalty_Neutral>  (283) 
1.6971e-14

>  <r_epik_State_Penalty>  (283) 
-0

>  <r_epik_Charging_Adjusted_Penalty>  (283) 
0

>  <i_epik_Tot_Q>  (283) 
0

>  <i_epik_Tot_abs_Q>  (283) 
0

>  <s_lp_Force_Field>  (283) 
OPLS3e

>  <r_lp_Energy>  (283) 
56.7451

>  <b_lp_Chiralities_Consistent>  (283) 
1

>  <s_lp_Variant>  (283) 
96:0-1

>  <s_i_glide_gridfile>  (283) 
pfpi4k_grid

>  <i_i_glide_lignum>  (283) 
21

>  <i_i_glide_rotatable_bonds>  (283) 
0

>  <r_i_docking_score>  (283) 
-2.92704

>  <r_i_glide_ligand_efficiency>  (283) 
-0.139383

>  <r_i_glide_ligand_efficiency_sa>  (283) 
-0.384546

>  <r_i_glide_ligand_efficiency_ln>  (283) 
-0.723704

>  <r_i_glide_gscore>  (283) 
-2.92704

>  <r_i_glide_lipo>  (283) 
-0.328362

>  <r_i_glide_hbond>  (283) 
0

>  <r_i_glide_metal>  (283) 
-0

>  <r_i_glide_rewards>  (283) 
-1.44227

>  <r_i_glide_evdw>  (283) 
-22.6014

>  <r_i_glide_ecoul>  (283) 
-0.17557

>  <r_i_glide_erotb>  (283) 
0

>  <r_i_glide_esite>  (283) 
0

>  <r_i_glide_emodel>  (283) 
-26.7552

>  <r_i_glide_energy>  (283) 
-22.777

>  <r_i_glide_einternal>  (283) 
0

>  <r_i_glide_intrahb_reward>  (283) 
-0

>  <i_i_glide_confnum>  (283) 
1

>  <i_i_glide_posenum>  (283) 
27

>  <r_i_glide_eff_state_penalty>  (283) 
0

>  <ligand_id>  (283) 
96

>  <original_smiles>  (283) 
CC12CCC3C(CCC4C(C)(C)CCCC43C)(CC1=O)C2

>  <smiles>  (283) 
[H]C([H])([H])C12C(=O)C([H])([H])C3(C([H])([H])C([H])([H])C4([H])C(C([H])([H])[H])(C([H])([H])[H])C([H])([H])C([H])([H])C([H])([H])C4(C([H])([H])[H])C3([H])C([H])([H])C1([H])[H])C2([H])[H]

$$$$
98:0:0
     RDKit          3D

 51 55  0  0  1  0  0  0  0  0999 V2000
    2.7876   -5.4127    3.8523 C   0  0  0  0  0  0  0  0  0  0  0  0
    3.4177   -4.8832    2.7825 C   0  0  0  0  0  0  0  0  0  0  0  0
    4.9666   -4.0833    3.0834 C   0  0  1  0  0  0  0  0  0  0  0  0
    5.8337   -4.9994    3.7210 O   0  0  0  0  0  0  0  0  0  0  0  0
    5.9029   -2.9556    2.0131 C   0  0  2  0  0  0  0  0  0  0  0  0
    7.0857   -3.3944    1.0587 C   0  0  1  0  0  0  0  0  0  0  0  0
    8.0251   -4.3378    1.5608 O   0  0  0  0  0  0  0  0  0  0  0  0
    6.6336   -3.5295   -0.4823 C   0  0  0  0  0  0  0  0  0  0  0  0
    5.1348   -4.0259   -0.7098 C   0  0  2  0  0  0  0  0  0  0  0  0
    3.9168   -2.9905   -0.7484 C   0  0  1  0  0  0  0  0  0  0  0  0
    3.5631   -2.6778   -2.2164 C   0  0  0  0  0  0  0  0  0  0  0  0
    2.5732   -3.8468   -0.0926 C   0  0  0  0  0  0  0  0  0  0  0  0
    2.6914   -4.9671    1.2307 C   0  0  2  0  0  0  0  0  0  0  0  0
    1.4633   -5.6747    1.2828 O   0  0  0  0  0  0  0  0  0  0  0  0
    3.6719   -5.7640    0.5491 C   0  0  0  0  0  0  0  0  0  0  0  0
    4.8928   -4.8156    0.5486 C   0  0  1  0  0  0  0  0  0  0  0  0
    5.9367   -5.9999    0.6990 C   0  0  0  0  0  0  0  0  0  0  0  0
    4.7680   -3.4428    1.5547 C   0  0  1  0  0  0  0  0  0  0  0  0
    3.5542   -2.2498    2.0873 C   0  0  0  0  0  0  0  0  0  0  0  0
    3.3030   -1.1486    0.9969 C   0  0  0  0  0  0  0  0  0  0  0  0
    4.3956   -1.5439    0.0090 C   0  0  1  0  0  0  0  0  0  0  0  0
    5.6566   -1.5604    1.0989 C   0  0  1  0  0  0  0  0  0  0  0  0
    5.7907   -0.4109    1.9273 O   0  0  0  0  0  0  0  0  0  0  0  0
    1.8351   -5.9063    3.7717 H   0  0  0  0  0  0  0  0  0  0  0  0
    3.2385   -5.3561    4.8294 H   0  0  0  0  0  0  0  0  0  0  0  0
    4.7400   -3.4814    3.9690 H   0  0  0  0  0  0  0  0  0  0  0  0
    6.2183   -5.5470    3.0499 H   0  0  0  0  0  0  0  0  0  0  0  0
    7.8200   -2.5915    1.0496 H   0  0  0  0  0  0  0  0  0  0  0  0
    8.3864   -4.0177    2.3653 H   0  0  0  0  0  0  0  0  0  0  0  0
    6.8157   -2.6242   -1.0652 H   0  0  0  0  0  0  0  0  0  0  0  0
    7.3325   -4.2203   -0.9354 H   0  0  0  0  0  0  0  0  0  0  0  0
    5.0936   -4.6804   -1.5831 H   0  0  0  0  0  0  0  0  0  0  0  0
    2.7035   -2.0042   -2.2922 H   0  0  0  0  0  0  0  0  0  0  0  0
    3.2933   -3.5930   -2.7519 H   0  0  0  0  0  0  0  0  0  0  0  0
    4.4014   -2.2266   -2.7530 H   0  0  0  0  0  0  0  0  0  0  0  0
    1.8172   -3.1193    0.1552 H   0  0  0  0  0  0  0  0  0  0  0  0
    2.1002   -4.3838   -0.9199 H   0  0  0  0  0  0  0  0  0  0  0  0
    1.6352   -6.5333    1.6491 H   0  0  0  0  0  0  0  0  0  0  0  0
    3.7824   -6.6904    1.1235 H   0  0  0  0  0  0  0  0  0  0  0  0
    3.3904   -6.0756   -0.4483 H   0  0  0  0  0  0  0  0  0  0  0  0
    6.0421   -6.3932    1.7078 H   0  0  0  0  0  0  0  0  0  0  0  0
    6.9261   -5.8914    0.2742 H   0  0  0  0  0  0  0  0  0  0  0  0
    5.6207   -6.8479    0.0934 H   0  0  0  0  0  0  0  0  0  0  0  0
    3.8302   -3.1232    1.4456 H   0  0  0  0  0  0  0  0  0  0  0  0
    2.5513   -2.5392    2.4903 H   0  0  0  0  0  0  0  0  0  0  0  0
    3.9115   -1.7094    2.9697 H   0  0  0  0  0  0  0  0  0  0  0  0
    2.3114   -1.1804    0.5609 H   0  0  0  0  0  0  0  0  0  0  0  0
    3.4139   -0.1387    1.3910 H   0  0  0  0  0  0  0  0  0  0  0  0
    4.5275   -0.7447   -0.7249 H   0  0  0  0  0  0  0  0  0  0  0  0
    6.4851   -1.2490    0.4705 H   0  0  0  0  0  0  0  0  0  0  0  0
    6.7061   -0.2048    2.0473 H   0  0  0  0  0  0  0  0  0  0  0  0
  1  2  2  0
  1 24  1  0
  1 25  1  0
  2 13  1  0
  2  3  1  0
  3  4  1  0
  5  3  1  1
  3 26  1  1
  4 27  1  0
  5 18  1  0
  5 22  1  0
  5  6  1  0
  6  7  1  0
  6  8  1  0
  6 28  1  6
  7 29  1  0
  8  9  1  0
  8 30  1  0
  8 31  1  0
  9 16  1  0
  9 10  1  0
  9 32  1  6
 10 21  1  0
 10 11  1  6
 10 12  1  0
 11 33  1  0
 11 34  1  0
 11 35  1  0
 12 13  1  0
 12 36  1  0
 12 37  1  0
 13 14  1  1
 13 15  1  0
 14 38  1  0
 15 16  1  0
 15 39  1  0
 15 40  1  0
 16 17  1  1
 16 18  1  0
 17 41  1  0
 17 42  1  0
 17 43  1  0
 18 19  1  0
 18 44  1  1
 19 20  1  0
 19 45  1  0
 19 46  1  0
 20 21  1  0
 20 47  1  0
 20 48  1  0
 21 22  1  0
 21 49  1  6
 22 23  1  0
 22 50  1  6
 23 51  1  0
M  END
>  <i_m_ct_stereo_status>  (284) 
1

>  <s_m_source_file>  (284) 
/var/tmp/pbs.5076255.sched01/tmpgyl_4d9e/126kfdajayx.sdf

>  <i_m_source_file_index>  (284) 
23

>  <i_lp_mmshare_version>  (284) 
48012

>  <i_f3d_flags>  (284) 
2

>  <s_epik_input>  (284) 
W09IXVtDQEBIXTFDKD1bQ0gyXSlbQ0BAXShbT0hdKShbQ0gyXTIpW0NIMl1bQ0BdKFtDSDNdKShbQ0BASF0oW0NIMl1bQ0gyXTMpW0NASF00W09IXSlbQ0BIXShbQ0BAXTIoW0NIM10pW0NASF0zW0NAQF0xNDUpW0NIMl1bQ0BASF01W09IXQ==

>  <s_epik_cmdline>  (284) 
J2VwaWtfcHl0aG9uJywgJy1waHQnLCAnMi4wJywgJy1waCcsICc3LjAnLCAnLXRuJywgJzgnLCAnLW1hJywgJzIwMCcsICctaW1hZScsICc8aW5maWxlLm1hZT4nLCAnLW9tYWUnLCAnPG91dGZpbGUubWFlPic=

>  <r_lp_tautomer_probability>  (284) 
1

>  <r_epik_Ionization_Penalty>  (284) 
8.46949e-07

>  <r_epik_Ionization_Penalty_Charging>  (284) 
0

>  <r_epik_Ionization_Penalty_Neutral>  (284) 
8.46949e-07

>  <r_epik_State_Penalty>  (284) 
-0

>  <r_epik_Charging_Adjusted_Penalty>  (284) 
0

>  <i_epik_Tot_Q>  (284) 
0

>  <i_epik_Tot_abs_Q>  (284) 
0

>  <s_lp_Force_Field>  (284) 
OPLS3e

>  <r_lp_Energy>  (284) 
631.389

>  <b_lp_Chiralities_Consistent>  (284) 
0

>  <s_lp_Variant>  (284) 
98:0-1

>  <s_i_glide_gridfile>  (284) 
pfpi4k_grid

>  <i_i_glide_lignum>  (284) 
23

>  <i_i_glide_rotatable_bonds>  (284) 
4

>  <r_i_docking_score>  (284) 
-4.03984

>  <r_i_glide_ligand_efficiency>  (284) 
-0.175645

>  <r_i_glide_ligand_efficiency_sa>  (284) 
-0.499512

>  <r_i_glide_ligand_efficiency_ln>  (284) 
-0.97687

>  <r_i_glide_gscore>  (284) 
-4.03984

>  <r_i_glide_lipo>  (284) 
-0.598064

>  <r_i_glide_hbond>  (284) 
-0.569831

>  <r_i_glide_metal>  (284) 
-0

>  <r_i_glide_rewards>  (284) 
-1.22439

>  <r_i_glide_evdw>  (284) 
-13.8553

>  <r_i_glide_ecoul>  (284) 
-6.36528

>  <r_i_glide_erotb>  (284) 
0

>  <r_i_glide_esite>  (284) 
0

>  <r_i_glide_emodel>  (284) 
-24.775

>  <r_i_glide_energy>  (284) 
-20.2206

>  <r_i_glide_einternal>  (284) 
1.31673

>  <r_i_glide_intrahb_reward>  (284) 
-0

>  <i_i_glide_confnum>  (284) 
2

>  <i_i_glide_posenum>  (284) 
27

>  <r_i_glide_eff_state_penalty>  (284) 
0

>  <ligand_id>  (284) 
98

>  <original_smiles>  (284) 
C=C1C(O)C23C(O)CC4C5(C)CC1(O)CC4(C)C2CCC5C3O

>  <smiles>  (284) 
[H]OC1([H])C(=C([H])[H])C2(O[H])C([H])([H])C3(C([H])([H])[H])C4([H])C([H])([H])C([H])([H])C5([H])C1(C([H])(O[H])C([H])([H])C3([H])C5(C([H])([H])[H])C2([H])[H])C4([H])O[H]

$$$$
98:0:1
     RDKit          3D

 51 55  0  0  1  0  0  0  0  0999 V2000
    2.9285   -5.4673    3.7173 C   0  0  0  0  0  0  0  0  0  0  0  0
    3.5000   -4.8444    2.6504 C   0  0  0  0  0  0  0  0  0  0  0  0
    5.0519   -4.0697    2.9290 C   0  0  1  0  0  0  0  0  0  0  0  0
    5.9495   -5.0226    3.4574 O   0  0  0  0  0  0  0  0  0  0  0  0
    5.9216   -2.8424    1.9097 C   0  0  2  0  0  0  0  0  0  0  0  0
    7.0586   -3.1957    0.8656 C   0  0  1  0  0  0  0  0  0  0  0  0
    8.0165   -4.1594    1.2611 O   0  0  0  0  0  0  0  0  0  0  0  0
    6.5221   -3.2136   -0.6592 C   0  0  0  0  0  0  0  0  0  0  0  0
    5.0213   -3.7089   -0.8378 C   0  0  2  0  0  0  0  0  0  0  0  0
    3.8020   -2.6860   -0.7368 C   0  0  1  0  0  0  0  0  0  0  0  0
    3.3797   -2.2583   -2.1515 C   0  0  0  0  0  0  0  0  0  0  0  0
    2.5055   -3.6048   -0.0847 C   0  0  0  0  0  0  0  0  0  0  0  0
    2.6928   -4.8151    1.1509 C   0  0  2  0  0  0  0  0  0  0  0  0
    1.4872   -5.5429    1.2182 O   0  0  0  0  0  0  0  0  0  0  0  0
    3.6338   -5.5364    0.3622 C   0  0  0  0  0  0  0  0  0  0  0  0
    4.8401   -4.5823    0.3740 C   0  0  1  0  0  0  0  0  0  0  0  0
    5.8812   -5.7695    0.3924 C   0  0  0  0  0  0  0  0  0  0  0  0
    4.7688   -3.2952    1.4853 C   0  0  1  0  0  0  0  0  0  0  0  0
    3.5732   -2.1606    2.1771 C   0  0  0  0  0  0  0  0  0  0  0  0
    3.2602   -0.9843    1.1882 C   0  0  0  0  0  0  0  0  0  0  0  0
    4.2977   -1.2958    0.1097 C   0  0  1  0  0  0  0  0  0  0  0  0
    5.6156   -1.3900    1.1246 C   0  0  1  0  0  0  0  0  0  0  0  0
    5.7665   -0.3121    2.0299 O   0  0  0  0  0  0  0  0  0  0  0  0
    1.9848   -5.9559    3.6420 H   0  0  0  0  0  0  0  0  0  0  0  0
    3.4392   -5.4847    4.6564 H   0  0  0  0  0  0  0  0  0  0  0  0
    4.8773   -3.5363    3.8667 H   0  0  0  0  0  0  0  0  0  0  0  0
    6.2538   -5.5716    2.7527 H   0  0  0  0  0  0  0  0  0  0  0  0
    7.7937   -2.3946    0.8767 H   0  0  0  0  0  0  0  0  0  0  0  0
    7.5775   -4.9841    1.4050 H   0  0  0  0  0  0  0  0  0  0  0  0
    6.6400   -2.2527   -1.1584 H   0  0  0  0  0  0  0  0  0  0  0  0
    7.2052   -3.8150   -1.2481 H   0  0  0  0  0  0  0  0  0  0  0  0
    4.9311   -4.2909   -1.7556 H   0  0  0  0  0  0  0  0  0  0  0  0
    2.5245   -1.5838   -2.1405 H   0  0  0  0  0  0  0  0  0  0  0  0
    3.0731   -3.1258   -2.7363 H   0  0  0  0  0  0  0  0  0  0  0  0
    4.1811   -1.7556   -2.6912 H   0  0  0  0  0  0  0  0  0  0  0  0
    1.7937   -2.8980    0.2787 H   0  0  0  0  0  0  0  0  0  0  0  0
    1.9723   -4.0708   -0.9258 H   0  0  0  0  0  0  0  0  0  0  0  0
    1.6889   -6.4168    1.5273 H   0  0  0  0  0  0  0  0  0  0  0  0
    3.7718   -6.5099    0.8455 H   0  0  0  0  0  0  0  0  0  0  0  0
    3.3082   -5.7391   -0.6484 H   0  0  0  0  0  0  0  0  0  0  0  0
    6.0375   -6.2604    1.3491 H   0  0  0  0  0  0  0  0  0  0  0  0
    6.8368   -5.6166   -0.0780 H   0  0  0  0  0  0  0  0  0  0  0  0
    5.5198   -6.5481   -0.2772 H   0  0  0  0  0  0  0  0  0  0  0  0
    3.8160   -2.9724    1.4528 H   0  0  0  0  0  0  0  0  0  0  0  0
    2.6027   -2.4984    2.6041 H   0  0  0  0  0  0  0  0  0  0  0  0
    3.9839   -1.7064    3.0840 H   0  0  0  0  0  0  0  0  0  0  0  0
    2.2390   -0.9890    0.8319 H   0  0  0  0  0  0  0  0  0  0  0  0
    3.3882   -0.0104    1.6485 H   0  0  0  0  0  0  0  0  0  0  0  0
    4.3899   -0.4461   -0.5621 H   0  0  0  0  0  0  0  0  0  0  0  0
    6.4117   -1.0280    0.4933 H   0  0  0  0  0  0  0  0  0  0  0  0
    5.0682   -0.3498    2.6715 H   0  0  0  0  0  0  0  0  0  0  0  0
  1  2  2  0
  1 24  1  0
  1 25  1  0
  2 13  1  0
  2  3  1  0
  3  4  1  0
  5  3  1  1
  3 26  1  1
  4 27  1  0
  5 18  1  0
  5 22  1  0
  5  6  1  0
  6  7  1  0
  6  8  1  0
  6 28  1  6
  7 29  1  0
  8  9  1  0
  8 30  1  0
  8 31  1  0
  9 16  1  0
  9 10  1  0
  9 32  1  6
 10 21  1  0
 10 11  1  6
 10 12  1  0
 11 33  1  0
 11 34  1  0
 11 35  1  0
 12 13  1  0
 12 36  1  0
 12 37  1  0
 13 14  1  1
 13 15  1  0
 14 38  1  0
 15 16  1  0
 15 39  1  0
 15 40  1  0
 16 17  1  1
 16 18  1  0
 17 41  1  0
 17 42  1  0
 17 43  1  0
 18 19  1  0
 18 44  1  1
 19 20  1  0
 19 45  1  0
 19 46  1  0
 20 21  1  0
 20 47  1  0
 20 48  1  0
 21 22  1  0
 21 49  1  6
 22 23  1  0
 22 50  1  6
 23 51  1  0
M  END
>  <i_m_ct_stereo_status>  (285) 
1

>  <s_m_source_file>  (285) 
/var/tmp/pbs.5076255.sched01/tmpgyl_4d9e/126kfdajayx.sdf

>  <i_m_source_file_index>  (285) 
23

>  <i_lp_mmshare_version>  (285) 
48012

>  <i_f3d_flags>  (285) 
2

>  <s_epik_input>  (285) 
W09IXVtDQEBIXTFDKD1bQ0gyXSlbQ0BAXShbT0hdKShbQ0gyXTIpW0NIMl1bQ0BdKFtDSDNdKShbQ0BASF0oW0NIMl1bQ0gyXTMpW0NASF00W09IXSlbQ0BIXShbQ0BAXTIoW0NIM10pW0NASF0zW0NAQF0xNDUpW0NIMl1bQ0BASF01W09IXQ==

>  <s_epik_cmdline>  (285) 
J2VwaWtfcHl0aG9uJywgJy1waHQnLCAnMi4wJywgJy1waCcsICc3LjAnLCAnLXRuJywgJzgnLCAnLW1hJywgJzIwMCcsICctaW1hZScsICc8aW5maWxlLm1hZT4nLCAnLW9tYWUnLCAnPG91dGZpbGUubWFlPic=

>  <r_lp_tautomer_probability>  (285) 
1

>  <r_epik_Ionization_Penalty>  (285) 
8.46949e-07

>  <r_epik_Ionization_Penalty_Charging>  (285) 
0

>  <r_epik_Ionization_Penalty_Neutral>  (285) 
8.46949e-07

>  <r_epik_State_Penalty>  (285) 
-0

>  <r_epik_Charging_Adjusted_Penalty>  (285) 
0

>  <i_epik_Tot_Q>  (285) 
0

>  <i_epik_Tot_abs_Q>  (285) 
0

>  <s_lp_Force_Field>  (285) 
OPLS3e

>  <r_lp_Energy>  (285) 
631.389

>  <b_lp_Chiralities_Consistent>  (285) 
0

>  <s_lp_Variant>  (285) 
98:0-1

>  <s_i_glide_gridfile>  (285) 
pfpi4k_grid

>  <i_i_glide_lignum>  (285) 
23

>  <i_i_glide_rotatable_bonds>  (285) 
4

>  <r_i_docking_score>  (285) 
-3.56253

>  <r_i_glide_ligand_efficiency>  (285) 
-0.154892

>  <r_i_glide_ligand_efficiency_sa>  (285) 
-0.440493

>  <r_i_glide_ligand_efficiency_ln>  (285) 
-0.861451

>  <r_i_glide_gscore>  (285) 
-3.56253

>  <r_i_glide_lipo>  (285) 
-0.599163

>  <r_i_glide_hbond>  (285) 
-0.376275

>  <r_i_glide_metal>  (285) 
-0

>  <r_i_glide_rewards>  (285) 
-1.22439

>  <r_i_glide_evdw>  (285) 
-14.5986

>  <r_i_glide_ecoul>  (285) 
-4.21848

>  <r_i_glide_erotb>  (285) 
0

>  <r_i_glide_esite>  (285) 
0

>  <r_i_glide_emodel>  (285) 
-22.9956

>  <r_i_glide_energy>  (285) 
-18.817

>  <r_i_glide_einternal>  (285) 
0.236174

>  <r_i_glide_intrahb_reward>  (285) 
-0

>  <i_i_glide_confnum>  (285) 
2

>  <i_i_glide_posenum>  (285) 
14

>  <r_i_glide_eff_state_penalty>  (285) 
0

>  <ligand_id>  (285) 
98

>  <original_smiles>  (285) 
C=C1C(O)C23C(O)CC4C5(C)CC1(O)CC4(C)C2CCC5C3O

>  <smiles>  (285) 
[H]OC1([H])C(=C([H])[H])C2(O[H])C([H])([H])C3(C([H])([H])[H])C4([H])C([H])([H])C([H])([H])C5([H])C1(C([H])(O[H])C([H])([H])C3([H])C5(C([H])([H])[H])C2([H])[H])C4([H])O[H]

$$$$
98:0:2
     RDKit          3D

 51 55  0  0  1  0  0  0  0  0999 V2000
    5.4494   -1.0313   -0.2133 C   0  0  0  0  0  0  0  0  0  0  0  0
    4.8606   -1.9326    0.5835 C   0  0  0  0  0  0  0  0  0  0  0  0
    5.6525   -2.2809    2.1314 C   0  0  1  0  0  0  0  0  0  0  0  0
    5.7957   -1.0716    2.8632 O   0  0  0  0  0  0  0  0  0  0  0  0
    5.4049   -3.6701    3.2652 C   0  0  2  0  0  0  0  0  0  0  0  0
    4.4808   -3.6150    4.5425 C   0  0  1  0  0  0  0  0  0  0  0  0
    4.5605   -2.4225    5.3003 O   0  0  0  0  0  0  0  0  0  0  0  0
    3.0278   -4.3122    4.2926 C   0  0  0  0  0  0  0  0  0  0  0  0
    2.4577   -4.2063    2.8034 C   0  0  2  0  0  0  0  0  0  0  0  0
    2.8513   -5.2616    1.6538 C   0  0  1  0  0  0  0  0  0  0  0  0
    1.7266   -6.3137    1.5328 C   0  0  0  0  0  0  0  0  0  0  0  0
    2.8735   -4.3643    0.1686 C   0  0  0  0  0  0  0  0  0  0  0  0
    3.4314   -2.7324    0.0718 C   0  0  2  0  0  0  0  0  0  0  0  0
    3.0180   -2.2511   -1.1975 O   0  0  0  0  0  0  0  0  0  0  0  0
    2.5329   -2.2656    1.0931 C   0  0  0  0  0  0  0  0  0  0  0  0
    3.1061   -2.9306    2.3568 C   0  0  1  0  0  0  0  0  0  0  0  0
    2.6976   -1.7129    3.3034 C   0  0  0  0  0  0  0  0  0  0  0  0
    4.6586   -3.6208    2.1801 C   0  0  1  0  0  0  0  0  0  0  0  0
    5.6185   -4.5239    0.9715 C   0  0  0  0  0  0  0  0  0  0  0  0
    5.2200   -6.0442    0.9210 C   0  0  0  0  0  0  0  0  0  0  0  0
    4.2738   -6.0654    2.1198 C   0  0  1  0  0  0  0  0  0  0  0  0
    5.3026   -5.3539    3.2265 C   0  0  1  0  0  0  0  0  0  0  0  0
    6.6136   -5.9004    3.3014 O   0  0  0  0  0  0  0  0  0  0  0  0
    5.0333   -0.7668   -1.1722 H   0  0  0  0  0  0  0  0  0  0  0  0
    6.3479   -0.5251    0.1021 H   0  0  0  0  0  0  0  0  0  0  0  0
    6.6934   -2.3850    1.8119 H   0  0  0  0  0  0  0  0  0  0  0  0
    6.3960   -0.5098    2.3900 H   0  0  0  0  0  0  0  0  0  0  0  0
    4.9529   -4.2079    5.3253 H   0  0  0  0  0  0  0  0  0  0  0  0
    4.2428   -1.7130    4.7591 H   0  0  0  0  0  0  0  0  0  0  0  0
    3.0164   -5.3593    4.5989 H   0  0  0  0  0  0  0  0  0  0  0  0
    2.3126   -3.8848    4.9961 H   0  0  0  0  0  0  0  0  0  0  0  0
    1.3748   -4.0844    2.8433 H   0  0  0  0  0  0  0  0  0  0  0  0
    1.9388   -7.0400    0.7454 H   0  0  0  0  0  0  0  0  0  0  0  0
    0.7692   -5.8564    1.2807 H   0  0  0  0  0  0  0  0  0  0  0  0
    1.5794   -6.8606    2.4680 H   0  0  0  0  0  0  0  0  0  0  0  0
    3.3748   -4.9254   -0.6112 H   0  0  0  0  0  0  0  0  0  0  0  0
    1.8519   -4.3682   -0.2097 H   0  0  0  0  0  0  0  0  0  0  0  0
    2.1556   -1.8201   -1.1008 H   0  0  0  0  0  0  0  0  0  0  0  0
    2.5683   -1.1703    1.0672 H   0  0  0  0  0  0  0  0  0  0  0  0
    1.4917   -2.5221    0.9366 H   0  0  0  0  0  0  0  0  0  0  0  0
    3.3782   -0.8660    3.2349 H   0  0  0  0  0  0  0  0  0  0  0  0
    2.4969   -1.9014    4.3490 H   0  0  0  0  0  0  0  0  0  0  0  0
    1.7159   -1.3137    3.0351 H   0  0  0  0  0  0  0  0  0  0  0  0
    4.6462   -4.0572    1.2805 H   0  0  0  0  0  0  0  0  0  0  0  0
    5.7379   -4.1936   -0.0914 H   0  0  0  0  0  0  0  0  0  0  0  0
    6.6793   -4.5051    1.2420 H   0  0  0  0  0  0  0  0  0  0  0  0
    4.7354   -6.3634   -0.0022 H   0  0  0  0  0  0  0  0  0  0  0  0
    6.0856   -6.6972    1.0437 H   0  0  0  0  0  0  0  0  0  0  0  0
    4.0585   -7.1007    2.4044 H   0  0  0  0  0  0  0  0  0  0  0  0
    4.9950   -5.8242    4.1564 H   0  0  0  0  0  0  0  0  0  0  0  0
    6.5452   -6.8410    3.3829 H   0  0  0  0  0  0  0  0  0  0  0  0
  1  2  2  0
  1 24  1  0
  1 25  1  0
  2 13  1  0
  2  3  1  0
  3  4  1  0
  5  3  1  1
  3 26  1  6
  4 27  1  0
  5 18  1  0
  5 22  1  0
  5  6  1  0
  6  7  1  0
  6  8  1  0
  6 28  1  1
  7 29  1  0
  8  9  1  0
  8 30  1  0
  8 31  1  0
  9 16  1  0
  9 10  1  0
  9 32  1  1
 10 21  1  0
 10 11  1  6
 10 12  1  0
 11 33  1  0
 11 34  1  0
 11 35  1  0
 12 13  1  0
 12 36  1  0
 12 37  1  0
 13 14  1  6
 13 15  1  0
 14 38  1  0
 15 16  1  0
 15 39  1  0
 15 40  1  0
 16 17  1  1
 16 18  1  0
 17 41  1  0
 17 42  1  0
 17 43  1  0
 18 19  1  0
 18 44  1  6
 19 20  1  0
 19 45  1  0
 19 46  1  0
 20 21  1  0
 20 47  1  0
 20 48  1  0
 21 22  1  0
 21 49  1  1
 22 23  1  0
 22 50  1  1
 23 51  1  0
M  END
>  <i_m_ct_stereo_status>  (286) 
1

>  <s_m_source_file>  (286) 
/var/tmp/pbs.5076255.sched01/tmpgyl_4d9e/126kfdajayx.sdf

>  <i_m_source_file_index>  (286) 
23

>  <i_lp_mmshare_version>  (286) 
48012

>  <i_f3d_flags>  (286) 
2

>  <s_epik_input>  (286) 
W09IXVtDQEBIXTFDKD1bQ0gyXSlbQ0BAXShbT0hdKShbQ0gyXTIpW0NIMl1bQ0BdKFtDSDNdKShbQ0BASF0oW0NIMl1bQ0gyXTMpW0NASF00W09IXSlbQ0BIXShbQ0BAXTIoW0NIM10pW0NASF0zW0NAQF0xNDUpW0NIMl1bQ0BASF01W09IXQ==

>  <s_epik_cmdline>  (286) 
J2VwaWtfcHl0aG9uJywgJy1waHQnLCAnMi4wJywgJy1waCcsICc3LjAnLCAnLXRuJywgJzgnLCAnLW1hJywgJzIwMCcsICctaW1hZScsICc8aW5maWxlLm1hZT4nLCAnLW9tYWUnLCAnPG91dGZpbGUubWFlPic=

>  <r_lp_tautomer_probability>  (286) 
1

>  <r_epik_Ionization_Penalty>  (286) 
8.46949e-07

>  <r_epik_Ionization_Penalty_Charging>  (286) 
0

>  <r_epik_Ionization_Penalty_Neutral>  (286) 
8.46949e-07

>  <r_epik_State_Penalty>  (286) 
-0

>  <r_epik_Charging_Adjusted_Penalty>  (286) 
0

>  <i_epik_Tot_Q>  (286) 
0

>  <i_epik_Tot_abs_Q>  (286) 
0

>  <s_lp_Force_Field>  (286) 
OPLS3e

>  <r_lp_Energy>  (286) 
631.389

>  <b_lp_Chiralities_Consistent>  (286) 
0

>  <s_lp_Variant>  (286) 
98:0-1

>  <s_i_glide_gridfile>  (286) 
pfpi4k_grid

>  <i_i_glide_lignum>  (286) 
23

>  <i_i_glide_rotatable_bonds>  (286) 
4

>  <r_i_docking_score>  (286) 
-3.27064

>  <r_i_glide_ligand_efficiency>  (286) 
-0.142202

>  <r_i_glide_ligand_efficiency_sa>  (286) 
-0.404403

>  <r_i_glide_ligand_efficiency_ln>  (286) 
-0.79087

>  <r_i_glide_gscore>  (286) 
-3.27064

>  <r_i_glide_lipo>  (286) 
-0.321254

>  <r_i_glide_hbond>  (286) 
-0.16

>  <r_i_glide_metal>  (286) 
-0

>  <r_i_glide_rewards>  (286) 
-1.22439

>  <r_i_glide_evdw>  (286) 
-16.6302

>  <r_i_glide_ecoul>  (286) 
-4.88991

>  <r_i_glide_erotb>  (286) 
0

>  <r_i_glide_esite>  (286) 
0

>  <r_i_glide_emodel>  (286) 
-25.1046

>  <r_i_glide_energy>  (286) 
-21.5201

>  <r_i_glide_einternal>  (286) 
1.4734

>  <r_i_glide_intrahb_reward>  (286) 
-0

>  <i_i_glide_confnum>  (286) 
1

>  <i_i_glide_posenum>  (286) 
39

>  <r_i_glide_eff_state_penalty>  (286) 
0

>  <ligand_id>  (286) 
98

>  <original_smiles>  (286) 
C=C1C(O)C23C(O)CC4C5(C)CC1(O)CC4(C)C2CCC5C3O

>  <smiles>  (286) 
[H]OC1([H])C(=C([H])[H])C2(O[H])C([H])([H])C3(C([H])([H])[H])C4([H])C([H])([H])C([H])([H])C5([H])C1(C([H])(O[H])C([H])([H])C3([H])C5(C([H])([H])[H])C2([H])[H])C4([H])O[H]

$$$$
99:0:0
     RDKit          3D

 41 44  0  0  1  0  0  0  0  0999 V2000
    7.6964   -6.1990    2.7366 C   0  0  0  0  0  0  0  0  0  0  0  0
    6.2149   -5.8944    2.4439 C   0  0  2  0  0  0  0  0  0  0  0  0
    5.5878   -6.8209    1.4063 C   0  0  0  0  0  0  0  0  0  0  0  0
    5.8551   -8.0141    1.2807 O   0  0  0  0  0  0  0  0  0  0  0  0
    4.5891   -6.0694    0.5346 C   0  0  0  0  0  0  0  0  0  0  0  0
    4.4842   -4.7086    1.2533 C   0  0  1  0  0  0  0  0  0  0  0  0
    5.8754   -4.4929    1.8898 C   0  0  2  0  0  0  0  0  0  0  0  0
    6.8813   -3.9935    0.8237 C   0  0  0  0  0  0  0  0  0  0  0  0
    6.4033   -2.7408    0.0639 C   0  0  2  0  0  0  0  0  0  0  0  0
    7.3486   -2.5375   -0.9799 O   0  0  0  0  0  0  0  0  0  0  0  0
    6.3649   -1.4196    0.8809 C   0  0  0  0  0  0  0  0  0  0  0  0
    5.0178   -0.7607    0.5153 C   0  0  2  0  0  0  0  0  0  0  0  0
    3.9728   -1.1969    1.5173 C   0  0  0  0  0  0  0  0  0  0  0  0
    3.4768   -2.4448    1.4805 C   0  0  0  0  0  0  0  0  0  0  0  0
    3.9216   -3.4938    0.4543 C   0  0  2  0  0  0  0  0  0  0  0  0
    2.6468   -3.9428   -0.2932 C   0  0  0  0  0  0  0  0  0  0  0  0
    4.9834   -2.8818   -0.5531 C   0  0  1  0  0  0  0  0  0  0  0  0
    4.7084   -1.3920   -0.8495 C   0  0  1  0  0  0  0  0  0  0  0  0
    3.4450   -1.0859   -1.3988 O   0  0  0  0  0  0  0  0  0  0  0  0
    7.8036   -7.1711    3.2179 H   0  0  0  0  0  0  0  0  0  0  0  0
    8.1283   -5.4580    3.4110 H   0  0  0  0  0  0  0  0  0  0  0  0
    8.3035   -6.2214    1.8310 H   0  0  0  0  0  0  0  0  0  0  0  0
    5.6536   -6.0393    3.3670 H   0  0  0  0  0  0  0  0  0  0  0  0
    4.9929   -5.9778   -0.4736 H   0  0  0  0  0  0  0  0  0  0  0  0
    3.6380   -6.5978    0.4848 H   0  0  0  0  0  0  0  0  0  0  0  0
    3.7874   -4.8851    2.0759 H   0  0  0  0  0  0  0  0  0  0  0  0
    5.8132   -3.7703    2.7056 H   0  0  0  0  0  0  0  0  0  0  0  0
    7.8523   -3.8008    1.2830 H   0  0  0  0  0  0  0  0  0  0  0  0
    7.0537   -4.7927    0.0965 H   0  0  0  0  0  0  0  0  0  0  0  0
    7.4644   -3.3554   -1.4396 H   0  0  0  0  0  0  0  0  0  0  0  0
    6.4542   -1.5866    1.9564 H   0  0  0  0  0  0  0  0  0  0  0  0
    7.1962   -0.7672    0.6079 H   0  0  0  0  0  0  0  0  0  0  0  0
    5.0705    0.3258    0.4781 H   0  0  0  0  0  0  0  0  0  0  0  0
    3.6367   -0.4780    2.2483 H   0  0  0  0  0  0  0  0  0  0  0  0
    2.7166   -2.7421    2.1883 H   0  0  0  0  0  0  0  0  0  0  0  0
    2.8802   -4.6151   -1.1145 H   0  0  0  0  0  0  0  0  0  0  0  0
    2.0920   -3.1044   -0.7122 H   0  0  0  0  0  0  0  0  0  0  0  0
    1.9697   -4.4677    0.3799 H   0  0  0  0  0  0  0  0  0  0  0  0
    5.0175   -3.4783   -1.4670 H   0  0  0  0  0  0  0  0  0  0  0  0
    5.4233   -1.0136   -1.5798 H   0  0  0  0  0  0  0  0  0  0  0  0
    2.7614   -1.2362   -0.7561 H   0  0  0  0  0  0  0  0  0  0  0  0
  1  2  1  0
  1 20  1  0
  1 21  1  0
  1 22  1  0
  2  7  1  0
  2  3  1  0
  2 23  1  1
  3  4  2  0
  3  5  1  0
  5  6  1  0
  5 24  1  0
  5 25  1  0
  6 15  1  0
  6  7  1  0
  6 26  1  1
  7  8  1  0
  7 27  1  1
  8  9  1  0
  8 28  1  0
  8 29  1  0
  9 17  1  0
  9 10  1  6
  9 11  1  0
 10 30  1  0
 11 12  1  0
 11 31  1  0
 11 32  1  0
 12 18  1  0
 12 13  1  0
 12 33  1  6
 13 14  2  0
 13 34  1  0
 14 15  1  0
 14 35  1  0
 15 16  1  6
 15 17  1  0
 16 36  1  0
 16 37  1  0
 16 38  1  0
 17 18  1  0
 17 39  1  6
 18 19  1  0
 18 40  1  6
 19 41  1  0
M  END
>  <i_m_ct_stereo_status>  (287) 
1

>  <s_m_source_file>  (287) 
/var/tmp/pbs.5076255.sched01/tmpgyl_4d9e/126kfdajayx.sdf

>  <i_m_source_file_index>  (287) 
24

>  <i_lp_mmshare_version>  (287) 
48012

>  <i_f3d_flags>  (287) 
0

>  <s_epik_input>  (287) 
Tz1DKFtDSDJdMSlbQ0BASF0oW0NIM10pW0NAQEhdKFtDSDJdMilbQ0BIXTFbQ0BdKFtDSDNdKShbQ0BASF0zW0NAXTI0W09IXSlbQ0hdPVtDSF1bQ0BASF0oW0NIMl00KVtDQEBIXTNbT0hd

>  <s_epik_cmdline>  (287) 
J2VwaWtfcHl0aG9uJywgJy1waHQnLCAnMi4wJywgJy1waCcsICc3LjAnLCAnLXRuJywgJzgnLCAnLW1hJywgJzIwMCcsICctaW1hZScsICc8aW5maWxlLm1hZT4nLCAnLW9tYWUnLCAnPG91dGZpbGUubWFlPic=

>  <r_lp_tautomer_probability>  (287) 
1

>  <r_epik_Ionization_Penalty>  (287) 
1.38885e-06

>  <r_epik_Ionization_Penalty_Charging>  (287) 
0

>  <r_epik_Ionization_Penalty_Neutral>  (287) 
1.38885e-06

>  <r_epik_State_Penalty>  (287) 
-0

>  <r_epik_Charging_Adjusted_Penalty>  (287) 
0

>  <i_epik_Tot_Q>  (287) 
0

>  <i_epik_Tot_abs_Q>  (287) 
0

>  <s_lp_Force_Field>  (287) 
OPLS3e

>  <r_lp_Energy>  (287) 
35.6979

>  <b_lp_Chiralities_Consistent>  (287) 
1

>  <s_lp_Variant>  (287) 
99:0-1

>  <s_i_glide_gridfile>  (287) 
pfpi4k_grid

>  <i_i_glide_lignum>  (287) 
24

>  <i_i_glide_rotatable_bonds>  (287) 
2

>  <r_i_docking_score>  (287) 
-4.39893

>  <r_i_glide_ligand_efficiency>  (287) 
-0.231522

>  <r_i_glide_ligand_efficiency_sa>  (287) 
-0.617795

>  <r_i_glide_ligand_efficiency_ln>  (287) 
-1.11522

>  <r_i_glide_gscore>  (287) 
-4.39893

>  <r_i_glide_lipo>  (287) 
-0.623486

>  <r_i_glide_hbond>  (287) 
-0.236998

>  <r_i_glide_metal>  (287) 
-0

>  <r_i_glide_rewards>  (287) 
-1.7481

>  <r_i_glide_evdw>  (287) 
-21.6463

>  <r_i_glide_ecoul>  (287) 
-4.72014

>  <r_i_glide_erotb>  (287) 
0

>  <r_i_glide_esite>  (287) 
0

>  <r_i_glide_emodel>  (287) 
-33.3265

>  <r_i_glide_energy>  (287) 
-26.3664

>  <r_i_glide_einternal>  (287) 
0.0663531

>  <r_i_glide_intrahb_reward>  (287) 
-0

>  <i_i_glide_confnum>  (287) 
1

>  <i_i_glide_posenum>  (287) 
6

>  <r_i_glide_eff_state_penalty>  (287) 
0

>  <ligand_id>  (287) 
99

>  <original_smiles>  (287) 
CC1C(=O)CC2C1CC1(O)CC3C=CC2(C)C1C3O

>  <smiles>  (287) 
[H]OC1([H])C2([H])C([H])=C([H])C3(C([H])([H])[H])C4([H])C([H])([H])C(=O)C([H])(C([H])([H])[H])C4([H])C([H])([H])C(O[H])(C2([H])[H])C13[H]

$$$$
99:0:1
     RDKit          3D

 41 44  0  0  1  0  0  0  0  0999 V2000
    4.7400   -6.1919    3.7767 C   0  0  0  0  0  0  0  0  0  0  0  0
    3.7636   -5.4408    2.8546 C   0  0  2  0  0  0  0  0  0  0  0  0
    3.1904   -6.2967    1.7292 C   0  0  0  0  0  0  0  0  0  0  0  0
    2.9029   -7.4878    1.8240 O   0  0  0  0  0  0  0  0  0  0  0  0
    3.0094   -5.4751    0.4653 C   0  0  0  0  0  0  0  0  0  0  0  0
    3.2965   -4.0408    0.9474 C   0  0  1  0  0  0  0  0  0  0  0  0
    4.3148   -4.2131    2.0950 C   0  0  2  0  0  0  0  0  0  0  0  0
    5.7331   -4.4368    1.5228 C   0  0  0  0  0  0  0  0  0  0  0  0
    6.1734   -3.3442    0.5350 C   0  0  2  0  0  0  0  0  0  0  0  0
    7.3980   -3.8199    0.0039 O   0  0  0  0  0  0  0  0  0  0  0  0
    6.4634   -1.9419    1.1379 C   0  0  0  0  0  0  0  0  0  0  0  0
    5.7896   -0.9476    0.1779 C   0  0  2  0  0  0  0  0  0  0  0  0
    4.3855   -0.6695    0.6695 C   0  0  0  0  0  0  0  0  0  0  0  0
    3.4267   -1.5948    0.5294 C   0  0  0  0  0  0  0  0  0  0  0  0
    3.6675   -2.9638   -0.1183 C   0  0  2  0  0  0  0  0  0  0  0  0
    2.6838   -3.0690   -1.3051 C   0  0  0  0  0  0  0  0  0  0  0  0
    5.1666   -3.0937   -0.6216 C   0  0  1  0  0  0  0  0  0  0  0  0
    5.7252   -1.7476   -1.1296 C   0  0  1  0  0  0  0  0  0  0  0  0
    5.0079   -1.1016   -2.1613 O   0  0  0  0  0  0  0  0  0  0  0  0
    4.2177   -6.9658    4.3394 H   0  0  0  0  0  0  0  0  0  0  0  0
    5.1982   -5.5195    4.5000 H   0  0  0  0  0  0  0  0  0  0  0  0
    5.5388   -6.6844    3.2204 H   0  0  0  0  0  0  0  0  0  0  0  0
    2.9161   -5.1153    3.4566 H   0  0  0  0  0  0  0  0  0  0  0  0
    3.7308   -5.8100   -0.2821 H   0  0  0  0  0  0  0  0  0  0  0  0
    2.0082   -5.5945    0.0533 H   0  0  0  0  0  0  0  0  0  0  0  0
    2.3603   -3.7117    1.4044 H   0  0  0  0  0  0  0  0  0  0  0  0
    4.3131   -3.3361    2.7440 H   0  0  0  0  0  0  0  0  0  0  0  0
    6.4574   -4.5238    2.3346 H   0  0  0  0  0  0  0  0  0  0  0  0
    5.7636   -5.3968    0.9997 H   0  0  0  0  0  0  0  0  0  0  0  0
    7.9695   -4.0111    0.7319 H   0  0  0  0  0  0  0  0  0  0  0  0
    6.0927   -1.8345    2.1600 H   0  0  0  0  0  0  0  0  0  0  0  0
    7.5333   -1.7364    1.1757 H   0  0  0  0  0  0  0  0  0  0  0  0
    6.3374   -0.0111    0.0833 H   0  0  0  0  0  0  0  0  0  0  0  0
    4.1862    0.2898    1.1209 H   0  0  0  0  0  0  0  0  0  0  0  0
    2.4219   -1.3827    0.8687 H   0  0  0  0  0  0  0  0  0  0  0  0
    2.8503   -3.9615   -1.9016 H   0  0  0  0  0  0  0  0  0  0  0  0
    2.7410   -2.2163   -1.9798 H   0  0  0  0  0  0  0  0  0  0  0  0
    1.6553   -3.1015   -0.9468 H   0  0  0  0  0  0  0  0  0  0  0  0
    5.2468   -3.8795   -1.3761 H   0  0  0  0  0  0  0  0  0  0  0  0
    6.7319   -1.8935   -1.5227 H   0  0  0  0  0  0  0  0  0  0  0  0
    4.1155   -0.9853   -1.8693 H   0  0  0  0  0  0  0  0  0  0  0  0
  1  2  1  0
  1 20  1  0
  1 21  1  0
  1 22  1  0
  2  7  1  0
  2  3  1  0
  2 23  1  1
  3  4  2  0
  3  5  1  0
  5  6  1  0
  5 24  1  0
  5 25  1  0
  6 15  1  0
  6  7  1  0
  6 26  1  1
  7  8  1  0
  7 27  1  1
  8  9  1  0
  8 28  1  0
  8 29  1  0
  9 17  1  0
  9 10  1  6
  9 11  1  0
 10 30  1  0
 11 12  1  0
 11 31  1  0
 11 32  1  0
 12 18  1  0
 12 13  1  0
 12 33  1  6
 13 14  2  0
 13 34  1  0
 14 15  1  0
 14 35  1  0
 15 16  1  6
 15 17  1  0
 16 36  1  0
 16 37  1  0
 16 38  1  0
 17 18  1  0
 17 39  1  6
 18 19  1  0
 18 40  1  6
 19 41  1  0
M  END
>  <i_m_ct_stereo_status>  (288) 
1

>  <s_m_source_file>  (288) 
/var/tmp/pbs.5076255.sched01/tmpgyl_4d9e/126kfdajayx.sdf

>  <i_m_source_file_index>  (288) 
24

>  <i_lp_mmshare_version>  (288) 
48012

>  <i_f3d_flags>  (288) 
0

>  <s_epik_input>  (288) 
Tz1DKFtDSDJdMSlbQ0BASF0oW0NIM10pW0NAQEhdKFtDSDJdMilbQ0BIXTFbQ0BdKFtDSDNdKShbQ0BASF0zW0NAXTI0W09IXSlbQ0hdPVtDSF1bQ0BASF0oW0NIMl00KVtDQEBIXTNbT0hd

>  <s_epik_cmdline>  (288) 
J2VwaWtfcHl0aG9uJywgJy1waHQnLCAnMi4wJywgJy1waCcsICc3LjAnLCAnLXRuJywgJzgnLCAnLW1hJywgJzIwMCcsICctaW1hZScsICc8aW5maWxlLm1hZT4nLCAnLW9tYWUnLCAnPG91dGZpbGUubWFlPic=

>  <r_lp_tautomer_probability>  (288) 
1

>  <r_epik_Ionization_Penalty>  (288) 
1.38885e-06

>  <r_epik_Ionization_Penalty_Charging>  (288) 
0

>  <r_epik_Ionization_Penalty_Neutral>  (288) 
1.38885e-06

>  <r_epik_State_Penalty>  (288) 
-0

>  <r_epik_Charging_Adjusted_Penalty>  (288) 
0

>  <i_epik_Tot_Q>  (288) 
0

>  <i_epik_Tot_abs_Q>  (288) 
0

>  <s_lp_Force_Field>  (288) 
OPLS3e

>  <r_lp_Energy>  (288) 
35.6979

>  <b_lp_Chiralities_Consistent>  (288) 
1

>  <s_lp_Variant>  (288) 
99:0-1

>  <s_i_glide_gridfile>  (288) 
pfpi4k_grid

>  <i_i_glide_lignum>  (288) 
24

>  <i_i_glide_rotatable_bonds>  (288) 
2

>  <r_i_docking_score>  (288) 
-3.37942

>  <r_i_glide_ligand_efficiency>  (288) 
-0.177864

>  <r_i_glide_ligand_efficiency_sa>  (288) 
-0.474613

>  <r_i_glide_ligand_efficiency_ln>  (288) 
-0.856756

>  <r_i_glide_gscore>  (288) 
-3.37942

>  <r_i_glide_lipo>  (288) 
-0.404455

>  <r_i_glide_hbond>  (288) 
0

>  <r_i_glide_metal>  (288) 
-0

>  <r_i_glide_rewards>  (288) 
-1.66617

>  <r_i_glide_evdw>  (288) 
-21.3065

>  <r_i_glide_ecoul>  (288) 
-1.62313

>  <r_i_glide_erotb>  (288) 
0

>  <r_i_glide_esite>  (288) 
0

>  <r_i_glide_emodel>  (288) 
-28.3084

>  <r_i_glide_energy>  (288) 
-22.9296

>  <r_i_glide_einternal>  (288) 
0.0188619

>  <r_i_glide_intrahb_reward>  (288) 
-0

>  <i_i_glide_confnum>  (288) 
2

>  <i_i_glide_posenum>  (288) 
17

>  <r_i_glide_eff_state_penalty>  (288) 
0

>  <ligand_id>  (288) 
99

>  <original_smiles>  (288) 
CC1C(=O)CC2C1CC1(O)CC3C=CC2(C)C1C3O

>  <smiles>  (288) 
[H]OC1([H])C2([H])C([H])=C([H])C3(C([H])([H])[H])C4([H])C([H])([H])C(=O)C([H])(C([H])([H])[H])C4([H])C([H])([H])C(O[H])(C2([H])[H])C13[H]

$$$$
99:0:2
     RDKit          3D

 41 44  0  0  1  0  0  0  0  0999 V2000
    4.9030   -6.2543    3.7553 C   0  0  0  0  0  0  0  0  0  0  0  0
    3.8966   -5.5244    2.8497 C   0  0  2  0  0  0  0  0  0  0  0  0
    3.3480   -6.3845    1.7150 C   0  0  0  0  0  0  0  0  0  0  0  0
    3.1076   -7.5866    1.7929 O   0  0  0  0  0  0  0  0  0  0  0  0
    3.1318   -5.5519    0.4643 C   0  0  0  0  0  0  0  0  0  0  0  0
    3.3701   -4.1149    0.9642 C   0  0  1  0  0  0  0  0  0  0  0  0
    4.4011   -4.2677    2.1041 C   0  0  2  0  0  0  0  0  0  0  0  0
    5.8221   -4.4350    1.5196 C   0  0  0  0  0  0  0  0  0  0  0  0
    6.2172   -3.3144    0.5440 C   0  0  2  0  0  0  0  0  0  0  0  0
    7.4553   -3.7335   -0.0038 O   0  0  0  0  0  0  0  0  0  0  0  0
    6.4647   -1.9118    1.1641 C   0  0  0  0  0  0  0  0  0  0  0  0
    5.7507   -0.9261    0.2251 C   0  0  2  0  0  0  0  0  0  0  0  0
    4.3427   -0.7025    0.7289 C   0  0  0  0  0  0  0  0  0  0  0  0
    3.4147   -1.6591    0.5784 C   0  0  0  0  0  0  0  0  0  0  0  0
    3.6962   -3.0088   -0.0874 C   0  0  2  0  0  0  0  0  0  0  0  0
    2.7081   -3.1325   -1.2693 C   0  0  0  0  0  0  0  0  0  0  0  0
    5.1938   -3.0829   -0.6029 C   0  0  1  0  0  0  0  0  0  0  0  0
    5.7046   -1.7117   -1.0924 C   0  0  1  0  0  0  0  0  0  0  0  0
    4.9638   -1.0778   -2.1149 O   0  0  0  0  0  0  0  0  0  0  0  0
    4.4110   -7.0543    4.3092 H   0  0  0  0  0  0  0  0  0  0  0  0
    5.3413   -5.5767    4.4862 H   0  0  0  0  0  0  0  0  0  0  0  0
    5.7153   -6.7103    3.1882 H   0  0  0  0  0  0  0  0  0  0  0  0
    3.0413   -5.2364    3.4598 H   0  0  0  0  0  0  0  0  0  0  0  0
    3.8588   -5.8511   -0.2925 H   0  0  0  0  0  0  0  0  0  0  0  0
    2.1325   -5.6994    0.0563 H   0  0  0  0  0  0  0  0  0  0  0  0
    2.4265   -3.8248    1.4314 H   0  0  0  0  0  0  0  0  0  0  0  0
    4.3732   -3.3996    2.7648 H   0  0  0  0  0  0  0  0  0  0  0  0
    6.5569   -4.5044    2.3238 H   0  0  0  0  0  0  0  0  0  0  0  0
    5.8801   -5.3894    0.9890 H   0  0  0  0  0  0  0  0  0  0  0  0
    7.3552   -4.6195   -0.3126 H   0  0  0  0  0  0  0  0  0  0  0  0
    6.0970   -1.8346    2.1896 H   0  0  0  0  0  0  0  0  0  0  0  0
    7.5284   -1.6771    1.2018 H   0  0  0  0  0  0  0  0  0  0  0  0
    6.2676    0.0296    0.1365 H   0  0  0  0  0  0  0  0  0  0  0  0
    4.1108    0.2418    1.1936 H   0  0  0  0  0  0  0  0  0  0  0  0
    2.4018   -1.4810    0.9169 H   0  0  0  0  0  0  0  0  0  0  0  0
    2.9033   -4.0102   -1.8780 H   0  0  0  0  0  0  0  0  0  0  0  0
    2.7343   -2.2682   -1.9319 H   0  0  0  0  0  0  0  0  0  0  0  0
    1.6836   -3.2035   -0.9062 H   0  0  0  0  0  0  0  0  0  0  0  0
    5.2925   -3.8504   -1.3731 H   0  0  0  0  0  0  0  0  0  0  0  0
    6.7123   -1.8295   -1.4903 H   0  0  0  0  0  0  0  0  0  0  0  0
    4.0664   -0.9994   -1.8216 H   0  0  0  0  0  0  0  0  0  0  0  0
  1  2  1  0
  1 20  1  0
  1 21  1  0
  1 22  1  0
  2  7  1  0
  2  3  1  0
  2 23  1  1
  3  4  2  0
  3  5  1  0
  5  6  1  0
  5 24  1  0
  5 25  1  0
  6 15  1  0
  6  7  1  0
  6 26  1  1
  7  8  1  0
  7 27  1  1
  8  9  1  0
  8 28  1  0
  8 29  1  0
  9 17  1  0
  9 10  1  6
  9 11  1  0
 10 30  1  0
 11 12  1  0
 11 31  1  0
 11 32  1  0
 12 18  1  0
 12 13  1  0
 12 33  1  6
 13 14  2  0
 13 34  1  0
 14 15  1  0
 14 35  1  0
 15 16  1  6
 15 17  1  0
 16 36  1  0
 16 37  1  0
 16 38  1  0
 17 18  1  0
 17 39  1  6
 18 19  1  0
 18 40  1  6
 19 41  1  0
M  END
>  <i_m_ct_stereo_status>  (289) 
1

>  <s_m_source_file>  (289) 
/var/tmp/pbs.5076255.sched01/tmpgyl_4d9e/126kfdajayx.sdf

>  <i_m_source_file_index>  (289) 
24

>  <i_lp_mmshare_version>  (289) 
48012

>  <i_f3d_flags>  (289) 
0

>  <s_epik_input>  (289) 
Tz1DKFtDSDJdMSlbQ0BASF0oW0NIM10pW0NAQEhdKFtDSDJdMilbQ0BIXTFbQ0BdKFtDSDNdKShbQ0BASF0zW0NAXTI0W09IXSlbQ0hdPVtDSF1bQ0BASF0oW0NIMl00KVtDQEBIXTNbT0hd

>  <s_epik_cmdline>  (289) 
J2VwaWtfcHl0aG9uJywgJy1waHQnLCAnMi4wJywgJy1waCcsICc3LjAnLCAnLXRuJywgJzgnLCAnLW1hJywgJzIwMCcsICctaW1hZScsICc8aW5maWxlLm1hZT4nLCAnLW9tYWUnLCAnPG91dGZpbGUubWFlPic=

>  <r_lp_tautomer_probability>  (289) 
1

>  <r_epik_Ionization_Penalty>  (289) 
1.38885e-06

>  <r_epik_Ionization_Penalty_Charging>  (289) 
0

>  <r_epik_Ionization_Penalty_Neutral>  (289) 
1.38885e-06

>  <r_epik_State_Penalty>  (289) 
-0

>  <r_epik_Charging_Adjusted_Penalty>  (289) 
0

>  <i_epik_Tot_Q>  (289) 
0

>  <i_epik_Tot_abs_Q>  (289) 
0

>  <s_lp_Force_Field>  (289) 
OPLS3e

>  <r_lp_Energy>  (289) 
35.6979

>  <b_lp_Chiralities_Consistent>  (289) 
1

>  <s_lp_Variant>  (289) 
99:0-1

>  <s_i_glide_gridfile>  (289) 
pfpi4k_grid

>  <i_i_glide_lignum>  (289) 
24

>  <i_i_glide_rotatable_bonds>  (289) 
2

>  <r_i_docking_score>  (289) 
-3.33541

>  <r_i_glide_ligand_efficiency>  (289) 
-0.175548

>  <r_i_glide_ligand_efficiency_sa>  (289) 
-0.468432

>  <r_i_glide_ligand_efficiency_ln>  (289) 
-0.845597

>  <r_i_glide_gscore>  (289) 
-3.33541

>  <r_i_glide_lipo>  (289) 
-0.421353

>  <r_i_glide_hbond>  (289) 
0

>  <r_i_glide_metal>  (289) 
-0

>  <r_i_glide_rewards>  (289) 
-1.67217

>  <r_i_glide_evdw>  (289) 
-21.2385

>  <r_i_glide_ecoul>  (289) 
-1.19971

>  <r_i_glide_erotb>  (289) 
0

>  <r_i_glide_esite>  (289) 
0

>  <r_i_glide_emodel>  (289) 
-27.7154

>  <r_i_glide_energy>  (289) 
-22.4383

>  <r_i_glide_einternal>  (289) 
0.0376957

>  <r_i_glide_intrahb_reward>  (289) 
-0

>  <i_i_glide_confnum>  (289) 
2

>  <i_i_glide_posenum>  (289) 
1

>  <r_i_glide_eff_state_penalty>  (289) 
0

>  <ligand_id>  (289) 
99

>  <original_smiles>  (289) 
CC1C(=O)CC2C1CC1(O)CC3C=CC2(C)C1C3O

>  <smiles>  (289) 
[H]OC1([H])C2([H])C([H])=C([H])C3(C([H])([H])[H])C4([H])C([H])([H])C(=O)C([H])(C([H])([H])[H])C4([H])C([H])([H])C(O[H])(C2([H])[H])C13[H]

$$$$
100:0:0
     RDKit          3D

 75 79  0  0  1  0  0  0  0  0999 V2000
    6.0366   -0.5255    0.9459 C   0  0  0  0  0  0  0  0  0  0  0  0
    5.0969   -1.7376    0.9568 C   0  0  0  0  0  0  0  0  0  0  0  0
    3.6570   -1.1556    0.9674 C   0  0  0  0  0  0  0  0  0  0  0  0
    5.3529   -2.5000   -0.3555 C   0  0  0  0  0  0  0  0  0  0  0  0
    4.9970   -3.9881   -0.2921 C   0  0  0  0  0  0  0  0  0  0  0  0
    5.7256   -4.6929    0.8680 C   0  0  2  0  0  0  0  0  0  0  0  0
    7.2550   -4.4810    0.6947 C   0  0  0  0  0  0  0  0  0  0  0  0
    5.4949   -6.2028    0.7874 C   0  0  0  0  0  0  0  0  0  0  0  0
    4.1793   -6.6968    1.3600 C   0  0  0  0  0  0  0  0  0  0  0  0
    3.9673   -6.3629    2.8665 C   0  0  2  0  0  0  0  0  0  0  0  0
    5.1826   -7.0197    3.5852 C   0  0  0  0  0  0  0  0  0  0  0  0
    2.5795   -7.0707    3.3196 C   0  0  1  0  0  0  0  0  0  0  0  0
    2.6235   -7.8186    4.7396 C   0  0  1  0  0  0  0  0  0  0  0  0
    2.8735   -6.9655    5.8363 O   0  0  0  0  0  0  0  0  0  0  0  0
    1.4981   -8.7885    5.1822 C   0  0  0  0  0  0  0  0  0  0  0  0
    0.0448   -8.2981    5.1016 C   0  0  1  0  0  0  0  0  0  0  0  0
    0.0397   -6.7636    5.0669 C   0  0  0  0  0  0  0  0  0  0  0  0
    0.0310   -6.8003    3.7593 C   0  0  0  0  0  0  0  0  0  0  0  0
   -0.6220   -8.2013    3.7081 C   0  0  0  0  0  0  0  0  0  0  0  0
   -0.2081   -9.2046    2.6401 C   0  0  0  0  0  0  0  0  0  0  0  0
   -2.1276   -8.0671    3.6635 C   0  0  0  0  0  0  0  0  0  0  0  0
    1.2414   -6.3005    2.9285 C   0  0  2  0  0  0  0  0  0  0  0  0
    0.8360   -6.4555    1.4440 C   0  0  0  0  0  0  0  0  0  0  0  0
    1.4595   -4.7944    3.2363 C   0  0  0  0  0  0  0  0  0  0  0  0
    2.6952   -4.1598    2.5831 C   0  0  0  0  0  0  0  0  0  0  0  0
    4.0431   -4.7684    3.0236 C   0  0  1  0  0  0  0  0  0  0  0  0
    4.2281   -4.3712    4.5175 C   0  0  0  0  0  0  0  0  0  0  0  0
    5.2753   -4.1193    2.2421 C   0  0  2  0  0  0  0  0  0  0  0  0
    5.4564   -2.5543    2.2391 C   0  0  0  0  0  0  0  0  0  0  0  0
    5.8834    0.1138    0.0806 H   0  0  0  0  0  0  0  0  0  0  0  0
    7.0772   -0.8671    0.9189 H   0  0  0  0  0  0  0  0  0  0  0  0
    5.9030    0.0689    1.8503 H   0  0  0  0  0  0  0  0  0  0  0  0
    2.8863   -1.9067    0.8201 H   0  0  0  0  0  0  0  0  0  0  0  0
    3.5338   -0.4370    0.1567 H   0  0  0  0  0  0  0  0  0  0  0  0
    3.4320   -0.6095    1.8846 H   0  0  0  0  0  0  0  0  0  0  0  0
    4.7308   -2.0645   -1.1375 H   0  0  0  0  0  0  0  0  0  0  0  0
    6.3746   -2.3660   -0.6930 H   0  0  0  0  0  0  0  0  0  0  0  0
    3.9177   -4.0856   -0.1913 H   0  0  0  0  0  0  0  0  0  0  0  0
    5.2303   -4.4600   -1.2492 H   0  0  0  0  0  0  0  0  0  0  0  0
    7.8244   -5.0756    1.4028 H   0  0  0  0  0  0  0  0  0  0  0  0
    7.5686   -3.4513    0.8512 H   0  0  0  0  0  0  0  0  0  0  0  0
    7.5778   -4.7469   -0.3131 H   0  0  0  0  0  0  0  0  0  0  0  0
    5.4540   -6.4562   -0.2646 H   0  0  0  0  0  0  0  0  0  0  0  0
    6.3475   -6.7520    1.2049 H   0  0  0  0  0  0  0  0  0  0  0  0
    3.4064   -6.2606    0.7447 H   0  0  0  0  0  0  0  0  0  0  0  0
    4.1158   -7.7761    1.1885 H   0  0  0  0  0  0  0  0  0  0  0  0
    5.1220   -6.9606    4.6718 H   0  0  0  0  0  0  0  0  0  0  0  0
    6.1205   -6.5486    3.3428 H   0  0  0  0  0  0  0  0  0  0  0  0
    5.2792   -8.0729    3.3223 H   0  0  0  0  0  0  0  0  0  0  0  0
    2.5396   -7.9593    2.6901 H   0  0  0  0  0  0  0  0  0  0  0  0
    3.4812   -8.4774    4.7010 H   0  0  0  0  0  0  0  0  0  0  0  0
    3.0085   -7.4963    6.5843 H   0  0  0  0  0  0  0  0  0  0  0  0
    1.5986   -9.7112    4.6019 H   0  0  0  0  0  0  0  0  0  0  0  0
    1.7095   -9.1322    6.1994 H   0  0  0  0  0  0  0  0  0  0  0  0
   -0.6377   -8.7976    5.7849 H   0  0  0  0  0  0  0  0  0  0  0  0
    0.5103   -6.0874    5.7762 H   0  0  0  0  0  0  0  0  0  0  0  0
   -0.5389  -10.2085    2.9237 H   0  0  0  0  0  0  0  0  0  0  0  0
    0.8672   -9.2889    2.4929 H   0  0  0  0  0  0  0  0  0  0  0  0
   -0.6709   -8.9926    1.6770 H   0  0  0  0  0  0  0  0  0  0  0  0
   -2.5712   -9.0308    3.9539 H   0  0  0  0  0  0  0  0  0  0  0  0
   -2.4973   -7.8156    2.6678 H   0  0  0  0  0  0  0  0  0  0  0  0
   -2.4903   -7.3025    4.3460 H   0  0  0  0  0  0  0  0  0  0  0  0
    1.3566   -5.7717    0.7911 H   0  0  0  0  0  0  0  0  0  0  0  0
   -0.2234   -6.2688    1.3073 H   0  0  0  0  0  0  0  0  0  0  0  0
    1.0338   -7.4533    1.0636 H   0  0  0  0  0  0  0  0  0  0  0  0
    0.6064   -4.2134    2.9053 H   0  0  0  0  0  0  0  0  0  0  0  0
    1.4920   -4.6386    4.3147 H   0  0  0  0  0  0  0  0  0  0  0  0
    2.6122   -4.2067    1.4981 H   0  0  0  0  0  0  0  0  0  0  0  0
    2.6938   -3.0962    2.8214 H   0  0  0  0  0  0  0  0  0  0  0  0
    4.1896   -3.2952    4.6702 H   0  0  0  0  0  0  0  0  0  0  0  0
    5.1718   -4.7159    4.9343 H   0  0  0  0  0  0  0  0  0  0  0  0
    3.4456   -4.7605    5.1555 H   0  0  0  0  0  0  0  0  0  0  0  0
    6.0900   -4.4038    2.9049 H   0  0  0  0  0  0  0  0  0  0  0  0
    6.4692   -2.3169    2.5180 H   0  0  0  0  0  0  0  0  0  0  0  0
    4.8528   -2.1373    3.0392 H   0  0  0  0  0  0  0  0  0  0  0  0
  1  2  1  0
  1 30  1  0
  1 31  1  0
  1 32  1  0
  2 29  1  0
  2  3  1  0
  2  4  1  0
  3 33  1  0
  3 34  1  0
  3 35  1  0
  4  5  1  0
  4 36  1  0
  4 37  1  0
  5  6  1  0
  5 38  1  0
  5 39  1  0
  6 28  1  0
  6  7  1  6
  6  8  1  0
  7 40  1  0
  7 41  1  0
  7 42  1  0
  8  9  1  0
  8 43  1  0
  8 44  1  0
  9 10  1  0
  9 45  1  0
  9 46  1  0
 10 26  1  0
 10 11  1  1
 10 12  1  0
 11 47  1  0
 11 48  1  0
 11 49  1  0
 12 22  1  0
 12 13  1  0
 12 50  1  6
 13 14  1  0
 13 15  1  0
 13 51  1  6
 14 52  1  0
 15 16  1  0
 15 53  1  0
 15 54  1  0
 16 19  1  0
 16 17  1  0
 16 55  1  1
 17 18  2  0
 17 56  1  0
 18 19  1  0
 18 22  1  0
 19 20  1  0
 19 21  1  0
 20 57  1  0
 20 58  1  0
 20 59  1  0
 21 60  1  0
 21 61  1  0
 21 62  1  0
 22 23  1  6
 22 24  1  0
 23 63  1  0
 23 64  1  0
 23 65  1  0
 24 25  1  0
 24 66  1  0
 24 67  1  0
 25 26  1  0
 25 68  1  0
 25 69  1  0
 26 27  1  1
 26 28  1  0
 27 70  1  0
 27 71  1  0
 27 72  1  0
 28 29  1  0
 28 73  1  1
 29 74  1  0
 29 75  1  0
M  END
>  <i_m_ct_stereo_status>  (290) 
1

>  <s_m_source_file>  (290) 
/var/tmp/pbs.5076255.sched01/tmpgyl_4d9e/126kfdajayx.sdf

>  <i_m_source_file_index>  (290) 
25

>  <i_lp_mmshare_version>  (290) 
48012

>  <i_f3d_flags>  (290) 
0

>  <s_epik_input>  (290) 
W0NIMl0xW0NIMl1DKFtDSDNdKShbQ0gzXSlbQ0gyXVtDQEhdKFtDQF0xMltDSDNdKVtDQF0zKFtDSDNdKVtDQF0oW0NIM10pKFtDSDJdW0NIMl0yKVtDQEBIXTRbQ0BdKFtDSDNdKShbQ0gyXVtDSDJdMylDNT1bQ0hdW0NAQEhdKEM1KFtDSDNdKVtDSDNdKVtDSDJdW0NAQEhdNFtPSF0=

>  <s_epik_cmdline>  (290) 
J2VwaWtfcHl0aG9uJywgJy1waHQnLCAnMi4wJywgJy1waCcsICc3LjAnLCAnLXRuJywgJzgnLCAnLW1hJywgJzIwMCcsICctaW1hZScsICc8aW5maWxlLm1hZT4nLCAnLW9tYWUnLCAnPG91dGZpbGUubWFlPic=

>  <r_lp_tautomer_probability>  (290) 
1

>  <r_epik_Ionization_Penalty>  (290) 
2.01537e-06

>  <r_epik_Ionization_Penalty_Charging>  (290) 
0

>  <r_epik_Ionization_Penalty_Neutral>  (290) 
2.01537e-06

>  <r_epik_State_Penalty>  (290) 
-0

>  <r_epik_Charging_Adjusted_Penalty>  (290) 
0

>  <i_epik_Tot_Q>  (290) 
0

>  <i_epik_Tot_abs_Q>  (290) 
0

>  <s_lp_Force_Field>  (290) 
OPLS3e

>  <r_lp_Energy>  (290) 
129.008

>  <b_lp_Chiralities_Consistent>  (290) 
1

>  <s_lp_Variant>  (290) 
100:0-1

>  <s_i_glide_gridfile>  (290) 
pfpi4k_grid

>  <i_i_glide_lignum>  (290) 
25

>  <i_i_glide_rotatable_bonds>  (290) 
1

>  <r_i_docking_score>  (290) 
-2.54255

>  <r_i_glide_ligand_efficiency>  (290) 
-0.0876741

>  <r_i_glide_ligand_efficiency_sa>  (290) 
-0.269363

>  <r_i_glide_ligand_efficiency_ln>  (290) 
-0.582179

>  <r_i_glide_gscore>  (290) 
-2.54255

>  <r_i_glide_lipo>  (290) 
-0.645787

>  <r_i_glide_hbond>  (290) 
0

>  <r_i_glide_metal>  (290) 
-0

>  <r_i_glide_rewards>  (290) 
-0.690926

>  <r_i_glide_evdw>  (290) 
-21.884

>  <r_i_glide_ecoul>  (290) 
-0.744227

>  <r_i_glide_erotb>  (290) 
0

>  <r_i_glide_esite>  (290) 
0

>  <r_i_glide_emodel>  (290) 
-25.5349

>  <r_i_glide_energy>  (290) 
-22.6283

>  <r_i_glide_einternal>  (290) 
0.340327

>  <r_i_glide_intrahb_reward>  (290) 
-0

>  <i_i_glide_confnum>  (290) 
2

>  <i_i_glide_posenum>  (290) 
20

>  <r_i_glide_eff_state_penalty>  (290) 
0

>  <ligand_id>  (290) 
100

>  <original_smiles>  (290) 
CC1(C)CCC2(C)CCC3(C)C4C(O)CC5C=C(C5(C)C)C4(C)CCC3(C)C2C1

>  <smiles>  (290) 
[H]OC1([H])C([H])([H])C2([H])C([H])=C(C2(C([H])([H])[H])C([H])([H])[H])C2(C([H])([H])[H])C([H])([H])C([H])([H])C3(C([H])([H])[H])C4([H])C([H])([H])C(C([H])([H])[H])(C([H])([H])[H])C([H])([H])C([H])([H])C4(C([H])([H])[H])C([H])([H])C([H])([H])C3(C([H])([H])[H])C12[H]

$$$$
100:0:1
     RDKit          3D

 75 79  0  0  1  0  0  0  0  0999 V2000
   -0.5894   -9.0866    3.8375 C   0  0  0  0  0  0  0  0  0  0  0  0
    0.0679   -7.7635    3.4091 C   0  0  0  0  0  0  0  0  0  0  0  0
   -0.6456   -7.3283    2.1030 C   0  0  0  0  0  0  0  0  0  0  0  0
   -0.2296   -6.7375    4.5254 C   0  0  0  0  0  0  0  0  0  0  0  0
    0.7758   -5.5886    4.6218 C   0  0  0  0  0  0  0  0  0  0  0  0
    2.2187   -6.1151    4.7832 C   0  0  2  0  0  0  0  0  0  0  0  0
    2.2773   -7.0289    6.0395 C   0  0  0  0  0  0  0  0  0  0  0  0
    3.1820   -4.9553    5.0794 C   0  0  0  0  0  0  0  0  0  0  0  0
    3.6268   -4.1727    3.8493 C   0  0  0  0  0  0  0  0  0  0  0  0
    4.3679   -5.0282    2.7786 C   0  0  2  0  0  0  0  0  0  0  0  0
    5.5865   -5.6451    3.5348 C   0  0  0  0  0  0  0  0  0  0  0  0
    4.8839   -4.0058    1.6203 C   0  0  1  0  0  0  0  0  0  0  0  0
    6.3766   -4.2365    1.1003 C   0  0  1  0  0  0  0  0  0  0  0  0
    6.5748   -5.4860    0.4805 O   0  0  0  0  0  0  0  0  0  0  0  0
    7.1198   -3.1903    0.2282 C   0  0  0  0  0  0  0  0  0  0  0  0
    6.4063   -2.6589   -1.0294 C   0  0  1  0  0  0  0  0  0  0  0  0
    5.2996   -3.6224   -1.4485 C   0  0  0  0  0  0  0  0  0  0  0  0
    4.4379   -2.9374   -0.7179 C   0  0  0  0  0  0  0  0  0  0  0  0
    5.2521   -1.6432   -0.8394 C   0  0  0  0  0  0  0  0  0  0  0  0
    5.3279   -0.6817    0.3485 C   0  0  0  0  0  0  0  0  0  0  0  0
    4.8034   -0.8501   -2.0711 C   0  0  0  0  0  0  0  0  0  0  0  0
    3.7876   -3.5563    0.5459 C   0  0  2  0  0  0  0  0  0  0  0  0
    2.8051   -2.5013    1.0831 C   0  0  0  0  0  0  0  0  0  0  0  0
    2.9661   -4.8040    0.1345 C   0  0  0  0  0  0  0  0  0  0  0  0
    2.3503   -5.6132    1.3015 C   0  0  0  0  0  0  0  0  0  0  0  0
    3.3770   -6.1952    2.2973 C   0  0  1  0  0  0  0  0  0  0  0  0
    4.1530   -7.3048    1.5253 C   0  0  0  0  0  0  0  0  0  0  0  0
    2.6469   -6.9318    3.5211 C   0  0  2  0  0  0  0  0  0  0  0  0
    1.5973   -8.0589    3.2272 C   0  0  0  0  0  0  0  0  0  0  0  0
   -1.6591   -8.9886    4.0206 H   0  0  0  0  0  0  0  0  0  0  0  0
   -0.1496   -9.4352    4.7697 H   0  0  0  0  0  0  0  0  0  0  0  0
   -0.4398   -9.8774    3.1037 H   0  0  0  0  0  0  0  0  0  0  0  0
   -0.3626   -6.3300    1.7779 H   0  0  0  0  0  0  0  0  0  0  0  0
   -1.7307   -7.3302    2.2407 H   0  0  0  0  0  0  0  0  0  0  0  0
   -0.4492   -8.0193    1.2823 H   0  0  0  0  0  0  0  0  0  0  0  0
   -1.2054   -6.2962    4.3512 H   0  0  0  0  0  0  0  0  0  0  0  0
   -0.3233   -7.2443    5.4892 H   0  0  0  0  0  0  0  0  0  0  0  0
    0.6886   -4.9625    3.7404 H   0  0  0  0  0  0  0  0  0  0  0  0
    0.5083   -4.9421    5.4603 H   0  0  0  0  0  0  0  0  0  0  0  0
    3.2981   -7.3214    6.2760 H   0  0  0  0  0  0  0  0  0  0  0  0
    1.7248   -7.9584    5.9271 H   0  0  0  0  0  0  0  0  0  0  0  0
    1.8717   -6.5192    6.9117 H   0  0  0  0  0  0  0  0  0  0  0  0
    2.6845   -4.2656    5.7541 H   0  0  0  0  0  0  0  0  0  0  0  0
    4.0422   -5.3074    5.6499 H   0  0  0  0  0  0  0  0  0  0  0  0
    2.7338   -3.7209    3.4375 H   0  0  0  0  0  0  0  0  0  0  0  0
    4.2481   -3.3435    4.1879 H   0  0  0  0  0  0  0  0  0  0  0  0
    6.2685   -6.1954    2.8988 H   0  0  0  0  0  0  0  0  0  0  0  0
    5.2954   -6.3665    4.2860 H   0  0  0  0  0  0  0  0  0  0  0  0
    6.1641   -4.8811    4.0468 H   0  0  0  0  0  0  0  0  0  0  0  0
    5.0570   -3.0874    2.1775 H   0  0  0  0  0  0  0  0  0  0  0  0
    6.9991   -4.2650    1.9844 H   0  0  0  0  0  0  0  0  0  0  0  0
    6.2713   -6.1568    1.0721 H   0  0  0  0  0  0  0  0  0  0  0  0
    7.3913   -2.3564    0.8652 H   0  0  0  0  0  0  0  0  0  0  0  0
    8.0806   -3.6038   -0.0586 H   0  0  0  0  0  0  0  0  0  0  0  0
    7.0725   -2.3038   -1.8175 H   0  0  0  0  0  0  0  0  0  0  0  0
    5.3930   -4.6874   -1.6852 H   0  0  0  0  0  0  0  0  0  0  0  0
    6.1554    0.0205    0.2175 H   0  0  0  0  0  0  0  0  0  0  0  0
    5.5137   -1.1718    1.3021 H   0  0  0  0  0  0  0  0  0  0  0  0
    4.4273   -0.0735    0.4487 H   0  0  0  0  0  0  0  0  0  0  0  0
    5.5302   -0.0794   -2.3154 H   0  0  0  0  0  0  0  0  0  0  0  0
    3.8539   -0.3472   -1.9089 H   0  0  0  0  0  0  0  0  0  0  0  0
    4.6968   -1.4822   -2.9501 H   0  0  0  0  0  0  0  0  0  0  0  0
    1.9652   -2.9063    1.6321 H   0  0  0  0  0  0  0  0  0  0  0  0
    2.3655   -1.9753    0.2462 H   0  0  0  0  0  0  0  0  0  0  0  0
    3.2766   -1.7548    1.7149 H   0  0  0  0  0  0  0  0  0  0  0  0
    2.1631   -4.4984   -0.5311 H   0  0  0  0  0  0  0  0  0  0  0  0
    3.5901   -5.4697   -0.4505 H   0  0  0  0  0  0  0  0  0  0  0  0
    1.6440   -4.9965    1.8398 H   0  0  0  0  0  0  0  0  0  0  0  0
    1.7687   -6.4314    0.8779 H   0  0  0  0  0  0  0  0  0  0  0  0
    3.4951   -8.0701    1.1257 H   0  0  0  0  0  0  0  0  0  0  0  0
    4.8796   -7.8246    2.1459 H   0  0  0  0  0  0  0  0  0  0  0  0
    4.6790   -6.9324    0.6574 H   0  0  0  0  0  0  0  0  0  0  0  0
    3.4675   -7.5345    3.8886 H   0  0  0  0  0  0  0  0  0  0  0  0
    1.8590   -8.9435    3.8336 H   0  0  0  0  0  0  0  0  0  0  0  0
    1.7117   -8.3978    2.2066 H   0  0  0  0  0  0  0  0  0  0  0  0
  1  2  1  0
  1 30  1  0
  1 31  1  0
  1 32  1  0
  2 29  1  0
  2  3  1  0
  2  4  1  0
  3 33  1  0
  3 34  1  0
  3 35  1  0
  4  5  1  0
  4 36  1  0
  4 37  1  0
  5  6  1  0
  5 38  1  0
  5 39  1  0
  6 28  1  0
  6  7  1  1
  6  8  1  0
  7 40  1  0
  7 41  1  0
  7 42  1  0
  8  9  1  0
  8 43  1  0
  8 44  1  0
  9 10  1  0
  9 45  1  0
  9 46  1  0
 10 26  1  0
 10 11  1  1
 10 12  1  0
 11 47  1  0
 11 48  1  0
 11 49  1  0
 12 22  1  0
 12 13  1  0
 12 50  1  1
 13 14  1  0
 13 15  1  0
 13 51  1  1
 14 52  1  0
 15 16  1  0
 15 53  1  0
 15 54  1  0
 16 19  1  0
 16 17  1  0
 16 55  1  6
 17 18  2  0
 17 56  1  0
 18 19  1  0
 18 22  1  0
 19 20  1  0
 19 21  1  0
 20 57  1  0
 20 58  1  0
 20 59  1  0
 21 60  1  0
 21 61  1  0
 21 62  1  0
 22 23  1  1
 22 24  1  0
 23 63  1  0
 23 64  1  0
 23 65  1  0
 24 25  1  0
 24 66  1  0
 24 67  1  0
 25 26  1  0
 25 68  1  0
 25 69  1  0
 26 27  1  6
 26 28  1  0
 27 70  1  0
 27 71  1  0
 27 72  1  0
 28 29  1  0
 28 73  1  1
 29 74  1  0
 29 75  1  0
M  END
>  <i_m_ct_stereo_status>  (291) 
1

>  <s_m_source_file>  (291) 
/var/tmp/pbs.5076255.sched01/tmpgyl_4d9e/126kfdajayx.sdf

>  <i_m_source_file_index>  (291) 
25

>  <i_lp_mmshare_version>  (291) 
48012

>  <i_f3d_flags>  (291) 
0

>  <s_epik_input>  (291) 
W0NIMl0xW0NIMl1DKFtDSDNdKShbQ0gzXSlbQ0gyXVtDQEhdKFtDQF0xMltDSDNdKVtDQF0zKFtDSDNdKVtDQF0oW0NIM10pKFtDSDJdW0NIMl0yKVtDQEBIXTRbQ0BdKFtDSDNdKShbQ0gyXVtDSDJdMylDNT1bQ0hdW0NAQEhdKEM1KFtDSDNdKVtDSDNdKVtDSDJdW0NAQEhdNFtPSF0=

>  <s_epik_cmdline>  (291) 
J2VwaWtfcHl0aG9uJywgJy1waHQnLCAnMi4wJywgJy1waCcsICc3LjAnLCAnLXRuJywgJzgnLCAnLW1hJywgJzIwMCcsICctaW1hZScsICc8aW5maWxlLm1hZT4nLCAnLW9tYWUnLCAnPG91dGZpbGUubWFlPic=

>  <r_lp_tautomer_probability>  (291) 
1

>  <r_epik_Ionization_Penalty>  (291) 
2.01537e-06

>  <r_epik_Ionization_Penalty_Charging>  (291) 
0

>  <r_epik_Ionization_Penalty_Neutral>  (291) 
2.01537e-06

>  <r_epik_State_Penalty>  (291) 
-0

>  <r_epik_Charging_Adjusted_Penalty>  (291) 
0

>  <i_epik_Tot_Q>  (291) 
0

>  <i_epik_Tot_abs_Q>  (291) 
0

>  <s_lp_Force_Field>  (291) 
OPLS3e

>  <r_lp_Energy>  (291) 
129.008

>  <b_lp_Chiralities_Consistent>  (291) 
1

>  <s_lp_Variant>  (291) 
100:0-1

>  <s_i_glide_gridfile>  (291) 
pfpi4k_grid

>  <i_i_glide_lignum>  (291) 
25

>  <i_i_glide_rotatable_bonds>  (291) 
1

>  <r_i_docking_score>  (291) 
-2.49609

>  <r_i_glide_ligand_efficiency>  (291) 
-0.0860721

>  <r_i_glide_ligand_efficiency_sa>  (291) 
-0.264441

>  <r_i_glide_ligand_efficiency_ln>  (291) 
-0.571542

>  <r_i_glide_gscore>  (291) 
-2.49609

>  <r_i_glide_lipo>  (291) 
-0.527714

>  <r_i_glide_hbond>  (291) 
0

>  <r_i_glide_metal>  (291) 
-0

>  <r_i_glide_rewards>  (291) 
-0.690926

>  <r_i_glide_evdw>  (291) 
-24.1128

>  <r_i_glide_ecoul>  (291) 
-0.478755

>  <r_i_glide_erotb>  (291) 
0

>  <r_i_glide_esite>  (291) 
0

>  <r_i_glide_emodel>  (291) 
-27.4412

>  <r_i_glide_energy>  (291) 
-24.5915

>  <r_i_glide_einternal>  (291) 
0.330219

>  <r_i_glide_intrahb_reward>  (291) 
-0

>  <i_i_glide_confnum>  (291) 
1

>  <i_i_glide_posenum>  (291) 
27

>  <r_i_glide_eff_state_penalty>  (291) 
0

>  <ligand_id>  (291) 
100

>  <original_smiles>  (291) 
CC1(C)CCC2(C)CCC3(C)C4C(O)CC5C=C(C5(C)C)C4(C)CCC3(C)C2C1

>  <smiles>  (291) 
[H]OC1([H])C([H])([H])C2([H])C([H])=C(C2(C([H])([H])[H])C([H])([H])[H])C2(C([H])([H])[H])C([H])([H])C([H])([H])C3(C([H])([H])[H])C4([H])C([H])([H])C(C([H])([H])[H])(C([H])([H])[H])C([H])([H])C([H])([H])C4(C([H])([H])[H])C([H])([H])C([H])([H])C3(C([H])([H])[H])C12[H]

$$$$
100:0:2
     RDKit          3D

 75 79  0  0  1  0  0  0  0  0999 V2000
   -0.6131   -9.0419    3.8377 C   0  0  0  0  0  0  0  0  0  0  0  0
    0.0545   -7.7266    3.4153 C   0  0  0  0  0  0  0  0  0  0  0  0
   -0.6552   -7.2798    2.1052 C   0  0  0  0  0  0  0  0  0  0  0  0
   -0.2384   -6.7015    4.5347 C   0  0  0  0  0  0  0  0  0  0  0  0
    0.7759   -5.5559    4.6286 C   0  0  0  0  0  0  0  0  0  0  0  0
    2.2137   -6.0905    4.7866 C   0  0  2  0  0  0  0  0  0  0  0  0
    2.2695   -7.0033    6.0388 C   0  0  0  0  0  0  0  0  0  0  0  0
    3.1875   -4.9403    5.0823 C   0  0  0  0  0  0  0  0  0  0  0  0
    3.6351   -4.1583    3.8519 C   0  0  0  0  0  0  0  0  0  0  0  0
    4.3663   -5.0131    2.7766 C   0  0  2  0  0  0  0  0  0  0  0  0
    5.5793   -5.6410    3.5306 C   0  0  0  0  0  0  0  0  0  0  0  0
    4.8906   -3.9951    1.6239 C   0  0  1  0  0  0  0  0  0  0  0  0
    6.3749   -4.2423    1.0998 C   0  0  1  0  0  0  0  0  0  0  0  0
    6.5681   -5.4923    0.4738 O   0  0  0  0  0  0  0  0  0  0  0  0
    7.1307   -3.1917    0.2301 C   0  0  0  0  0  0  0  0  0  0  0  0
    6.4177   -2.6482   -1.0282 C   0  0  1  0  0  0  0  0  0  0  0  0
    5.3069   -3.6086   -1.4472 C   0  0  0  0  0  0  0  0  0  0  0  0
    4.4501   -2.9217   -0.7094 C   0  0  0  0  0  0  0  0  0  0  0  0
    5.2783   -1.6289   -0.8336 C   0  0  0  0  0  0  0  0  0  0  0  0
    5.3549   -0.6680    0.3594 C   0  0  0  0  0  0  0  0  0  0  0  0
    4.8325   -0.8314   -2.0640 C   0  0  0  0  0  0  0  0  0  0  0  0
    3.8001   -3.5370    0.5529 C   0  0  2  0  0  0  0  0  0  0  0  0
    2.8258   -2.4732    1.0927 C   0  0  0  0  0  0  0  0  0  0  0  0
    2.9670   -4.7757    0.1398 C   0  0  0  0  0  0  0  0  0  0  0  0
    2.3469   -5.5823    1.3059 C   0  0  0  0  0  0  0  0  0  0  0  0
    3.3642   -6.1735    2.2966 C   0  0  1  0  0  0  0  0  0  0  0  0
    4.1346   -7.2880    1.5277 C   0  0  0  0  0  0  0  0  0  0  0  0
    2.6348   -6.9088    3.5248 C   0  0  2  0  0  0  0  0  0  0  0  0
    1.5791   -8.0367    3.2355 C   0  0  0  0  0  0  0  0  0  0  0  0
   -1.6829   -8.9325    4.0252 H   0  0  0  0  0  0  0  0  0  0  0  0
   -0.1725   -9.3957    4.7730 H   0  0  0  0  0  0  0  0  0  0  0  0
   -0.4708   -9.8379    3.1022 H   0  0  0  0  0  0  0  0  0  0  0  0
   -0.3697   -6.2867    1.7792 H   0  0  0  0  0  0  0  0  0  0  0  0
   -1.7386   -7.2751    2.2508 H   0  0  0  0  0  0  0  0  0  0  0  0
   -0.4721   -7.9698    1.2825 H   0  0  0  0  0  0  0  0  0  0  0  0
   -1.2124   -6.2618    4.3581 H   0  0  0  0  0  0  0  0  0  0  0  0
   -0.3314   -7.2084    5.4986 H   0  0  0  0  0  0  0  0  0  0  0  0
    0.6887   -4.9293    3.7471 H   0  0  0  0  0  0  0  0  0  0  0  0
    0.5126   -4.9045    5.4685 H   0  0  0  0  0  0  0  0  0  0  0  0
    3.2884   -7.3074    6.2705 H   0  0  0  0  0  0  0  0  0  0  0  0
    1.7122   -7.9318    5.9275 H   0  0  0  0  0  0  0  0  0  0  0  0
    1.8659   -6.4925    6.9153 H   0  0  0  0  0  0  0  0  0  0  0  0
    2.6928   -4.2466    5.7547 H   0  0  0  0  0  0  0  0  0  0  0  0
    4.0466   -5.2995    5.6541 H   0  0  0  0  0  0  0  0  0  0  0  0
    2.7451   -3.6975    3.4469 H   0  0  0  0  0  0  0  0  0  0  0  0
    4.2661   -3.3291    4.1901 H   0  0  0  0  0  0  0  0  0  0  0  0
    6.2566   -6.1914    2.8858 H   0  0  0  0  0  0  0  0  0  0  0  0
    5.2847   -6.3654    4.2817 H   0  0  0  0  0  0  0  0  0  0  0  0
    6.1686   -4.8830    4.0467 H   0  0  0  0  0  0  0  0  0  0  0  0
    5.0722   -3.0790    2.1809 H   0  0  0  0  0  0  0  0  0  0  0  0
    6.9979   -4.2767    1.9892 H   0  0  0  0  0  0  0  0  0  0  0  0
    7.4810   -5.6828    0.4757 H   0  0  0  0  0  0  0  0  0  0  0  0
    7.4049   -2.3628    0.8747 H   0  0  0  0  0  0  0  0  0  0  0  0
    8.0972   -3.6075   -0.0564 H   0  0  0  0  0  0  0  0  0  0  0  0
    7.0876   -2.3028   -1.8104 H   0  0  0  0  0  0  0  0  0  0  0  0
    5.3914   -4.6787   -1.6691 H   0  0  0  0  0  0  0  0  0  0  0  0
    6.1778    0.0295    0.2318 H   0  0  0  0  0  0  0  0  0  0  0  0
    5.5359   -1.1613    1.3116 H   0  0  0  0  0  0  0  0  0  0  0  0
    4.4512   -0.0618    0.4587 H   0  0  0  0  0  0  0  0  0  0  0  0
    5.5559   -0.0651   -2.3115 H   0  0  0  0  0  0  0  0  0  0  0  0
    3.8810   -0.3246   -1.8960 H   0  0  0  0  0  0  0  0  0  0  0  0
    4.7140   -1.4667   -2.9417 H   0  0  0  0  0  0  0  0  0  0  0  0
    1.9823   -2.8772    1.6412 H   0  0  0  0  0  0  0  0  0  0  0  0
    2.3890   -1.9387    0.2554 H   0  0  0  0  0  0  0  0  0  0  0  0
    3.3034   -1.7316    1.7262 H   0  0  0  0  0  0  0  0  0  0  0  0
    2.1636   -4.4622   -0.5280 H   0  0  0  0  0  0  0  0  0  0  0  0
    3.5920   -5.4415   -0.4457 H   0  0  0  0  0  0  0  0  0  0  0  0
    1.6441   -4.9632    1.8440 H   0  0  0  0  0  0  0  0  0  0  0  0
    1.7602   -6.3957    0.8784 H   0  0  0  0  0  0  0  0  0  0  0  0
    3.4709   -8.0474    1.1193 H   0  0  0  0  0  0  0  0  0  0  0  0
    4.8617   -7.8111    2.1455 H   0  0  0  0  0  0  0  0  0  0  0  0
    4.6705   -6.9138    0.6667 H   0  0  0  0  0  0  0  0  0  0  0  0
    3.4566   -7.5125    3.8848 H   0  0  0  0  0  0  0  0  0  0  0  0
    1.8375   -8.9259    3.8380 H   0  0  0  0  0  0  0  0  0  0  0  0
    1.6899   -8.3587    2.2105 H   0  0  0  0  0  0  0  0  0  0  0  0
  1  2  1  0
  1 30  1  0
  1 31  1  0
  1 32  1  0
  2 29  1  0
  2  3  1  0
  2  4  1  0
  3 33  1  0
  3 34  1  0
  3 35  1  0
  4  5  1  0
  4 36  1  0
  4 37  1  0
  5  6  1  0
  5 38  1  0
  5 39  1  0
  6 28  1  0
  6  7  1  1
  6  8  1  0
  7 40  1  0
  7 41  1  0
  7 42  1  0
  8  9  1  0
  8 43  1  0
  8 44  1  0
  9 10  1  0
  9 45  1  0
  9 46  1  0
 10 26  1  0
 10 11  1  1
 10 12  1  0
 11 47  1  0
 11 48  1  0
 11 49  1  0
 12 22  1  0
 12 13  1  0
 12 50  1  1
 13 14  1  0
 13 15  1  0
 13 51  1  1
 14 52  1  0
 15 16  1  0
 15 53  1  0
 15 54  1  0
 16 19  1  0
 16 17  1  0
 16 55  1  6
 17 18  2  0
 17 56  1  0
 18 19  1  0
 18 22  1  0
 19 20  1  0
 19 21  1  0
 20 57  1  0
 20 58  1  0
 20 59  1  0
 21 60  1  0
 21 61  1  0
 21 62  1  0
 22 23  1  1
 22 24  1  0
 23 63  1  0
 23 64  1  0
 23 65  1  0
 24 25  1  0
 24 66  1  0
 24 67  1  0
 25 26  1  0
 25 68  1  0
 25 69  1  0
 26 27  1  6
 26 28  1  0
 27 70  1  0
 27 71  1  0
 27 72  1  0
 28 29  1  0
 28 73  1  1
 29 74  1  0
 29 75  1  0
M  END
>  <i_m_ct_stereo_status>  (292) 
1

>  <s_m_source_file>  (292) 
/var/tmp/pbs.5076255.sched01/tmpgyl_4d9e/126kfdajayx.sdf

>  <i_m_source_file_index>  (292) 
25

>  <i_lp_mmshare_version>  (292) 
48012

>  <i_f3d_flags>  (292) 
0

>  <s_epik_input>  (292) 
W0NIMl0xW0NIMl1DKFtDSDNdKShbQ0gzXSlbQ0gyXVtDQEhdKFtDQF0xMltDSDNdKVtDQF0zKFtDSDNdKVtDQF0oW0NIM10pKFtDSDJdW0NIMl0yKVtDQEBIXTRbQ0BdKFtDSDNdKShbQ0gyXVtDSDJdMylDNT1bQ0hdW0NAQEhdKEM1KFtDSDNdKVtDSDNdKVtDSDJdW0NAQEhdNFtPSF0=

>  <s_epik_cmdline>  (292) 
J2VwaWtfcHl0aG9uJywgJy1waHQnLCAnMi4wJywgJy1waCcsICc3LjAnLCAnLXRuJywgJzgnLCAnLW1hJywgJzIwMCcsICctaW1hZScsICc8aW5maWxlLm1hZT4nLCAnLW9tYWUnLCAnPG91dGZpbGUubWFlPic=

>  <r_lp_tautomer_probability>  (292) 
1

>  <r_epik_Ionization_Penalty>  (292) 
2.01537e-06

>  <r_epik_Ionization_Penalty_Charging>  (292) 
0

>  <r_epik_Ionization_Penalty_Neutral>  (292) 
2.01537e-06

>  <r_epik_State_Penalty>  (292) 
-0

>  <r_epik_Charging_Adjusted_Penalty>  (292) 
0

>  <i_epik_Tot_Q>  (292) 
0

>  <i_epik_Tot_abs_Q>  (292) 
0

>  <s_lp_Force_Field>  (292) 
OPLS3e

>  <r_lp_Energy>  (292) 
129.008

>  <b_lp_Chiralities_Consistent>  (292) 
1

>  <s_lp_Variant>  (292) 
100:0-1

>  <s_i_glide_gridfile>  (292) 
pfpi4k_grid

>  <i_i_glide_lignum>  (292) 
25

>  <i_i_glide_rotatable_bonds>  (292) 
1

>  <r_i_docking_score>  (292) 
-2.45212

>  <r_i_glide_ligand_efficiency>  (292) 
-0.0845559

>  <r_i_glide_ligand_efficiency_sa>  (292) 
-0.259783

>  <r_i_glide_ligand_efficiency_ln>  (292) 
-0.561474

>  <r_i_glide_gscore>  (292) 
-2.45212

>  <r_i_glide_lipo>  (292) 
-0.536393

>  <r_i_glide_hbond>  (292) 
0

>  <r_i_glide_metal>  (292) 
-0

>  <r_i_glide_rewards>  (292) 
-0.690926

>  <r_i_glide_evdw>  (292) 
-24.0857

>  <r_i_glide_ecoul>  (292) 
-0.136784

>  <r_i_glide_erotb>  (292) 
0

>  <r_i_glide_esite>  (292) 
0

>  <r_i_glide_emodel>  (292) 
-26.9064

>  <r_i_glide_energy>  (292) 
-24.2225

>  <r_i_glide_einternal>  (292) 
0.444719

>  <r_i_glide_intrahb_reward>  (292) 
-0

>  <i_i_glide_confnum>  (292) 
2

>  <i_i_glide_posenum>  (292) 
9

>  <r_i_glide_eff_state_penalty>  (292) 
0

>  <ligand_id>  (292) 
100

>  <original_smiles>  (292) 
CC1(C)CCC2(C)CCC3(C)C4C(O)CC5C=C(C5(C)C)C4(C)CCC3(C)C2C1

>  <smiles>  (292) 
[H]OC1([H])C([H])([H])C2([H])C([H])=C(C2(C([H])([H])[H])C([H])([H])[H])C2(C([H])([H])[H])C([H])([H])C([H])([H])C3(C([H])([H])[H])C4([H])C([H])([H])C(C([H])([H])[H])(C([H])([H])[H])C([H])([H])C([H])([H])C4(C([H])([H])[H])C([H])([H])C([H])([H])C3(C([H])([H])[H])C12[H]

$$$$
102:0:0
     RDKit          3D

 48 53  0  0  1  0  0  0  0  0999 V2000
    3.5734   -6.6668    1.2789 C   0  0  0  0  0  0  0  0  0  0  0  0
    3.9184   -5.0960    1.0572 C   0  0  1  0  0  0  0  0  0  0  0  0
    4.7975   -5.1390   -0.1803 C   0  0  0  0  0  0  0  0  0  0  0  0
    6.1779   -4.3505    0.1283 C   0  0  2  0  0  0  0  0  0  0  0  0
    6.6848   -3.9722    1.6578 C   0  0  0  0  0  0  0  0  0  0  0  0
    5.7666   -4.8132    2.6703 C   0  0  2  0  0  0  0  0  0  0  0  0
    4.3026   -4.9788    3.5557 C   0  0  0  0  0  0  0  0  0  0  0  0
    2.6776   -4.8089    2.9071 C   0  0  0  0  0  0  0  0  0  0  0  0
    2.6583   -4.4124    1.2632 C   0  0  1  0  0  0  0  0  0  0  0  0
    2.8736   -2.9489    0.6530 C   0  0  0  0  0  0  0  0  0  0  0  0
    3.1028   -2.0173    1.6012 C   0  0  0  0  0  0  0  0  0  0  0  0
    4.0989   -2.5601    2.6311 C   0  0  0  0  0  0  0  0  0  0  0  0
    4.6986   -3.9966    2.0391 C   0  0  2  0  0  0  0  0  0  0  0  0
    3.7732   -2.7368   -0.6781 C   0  0  2  0  0  0  0  0  0  0  0  0
    2.9020   -3.0731   -1.9097 C   0  0  0  0  0  0  0  0  0  0  0  0
    3.6246   -2.9656   -3.2477 C   0  0  0  0  0  0  0  0  0  0  0  0
    3.0174   -2.5595   -4.2264 O   0  0  0  0  0  0  0  0  0  0  0  0
    5.0199   -3.3738   -3.3402 C   0  0  0  0  0  0  0  0  0  0  0  0
    5.8160   -3.4534   -2.2659 C   0  0  0  0  0  0  0  0  0  0  0  0
    5.4360   -3.1739   -0.8107 C   0  0  2  0  0  0  0  0  0  0  0  0
    6.2230   -1.8732   -0.5281 C   0  0  0  0  0  0  0  0  0  0  0  0
    6.3439   -6.0624    1.8828 C   0  0  0  0  0  0  0  0  0  0  0  0
    6.5744   -7.1380    2.4084 O   0  0  0  0  0  0  0  0  0  0  0  0
    6.5827   -5.7023    0.4761 O   0  0  0  0  0  0  0  0  0  0  0  0
    4.2862   -7.3725    0.8574 H   0  0  0  0  0  0  0  0  0  0  0  0
    2.6350   -6.9232    0.7894 H   0  0  0  0  0  0  0  0  0  0  0  0
    3.4913   -7.0405    2.2974 H   0  0  0  0  0  0  0  0  0  0  0  0
    4.9272   -6.1482   -0.5921 H   0  0  0  0  0  0  0  0  0  0  0  0
    4.2170   -4.9893   -1.0796 H   0  0  0  0  0  0  0  0  0  0  0  0
    7.7449   -4.2269    1.7532 H   0  0  0  0  0  0  0  0  0  0  0  0
    6.7917   -2.9073    1.9007 H   0  0  0  0  0  0  0  0  0  0  0  0
    4.3290   -5.9709    3.9921 H   0  0  0  0  0  0  0  0  0  0  0  0
    4.3977   -4.3798    4.4686 H   0  0  0  0  0  0  0  0  0  0  0  0
    2.0797   -5.6990    3.1028 H   0  0  0  0  0  0  0  0  0  0  0  0
    2.1172   -4.0771    3.4757 H   0  0  0  0  0  0  0  0  0  0  0  0
    1.8404   -4.8955    0.7353 H   0  0  0  0  0  0  0  0  0  0  0  0
    3.3736   -1.0156    1.2958 H   0  0  0  0  0  0  0  0  0  0  0  0
    4.8855   -1.8114    2.7876 H   0  0  0  0  0  0  0  0  0  0  0  0
    3.6001   -2.5696    3.5967 H   0  0  0  0  0  0  0  0  0  0  0  0
    4.9271   -3.1309    1.4474 H   0  0  0  0  0  0  0  0  0  0  0  0
    3.7957   -1.6519   -0.7587 H   0  0  0  0  0  0  0  0  0  0  0  0
    2.4978   -4.0806   -1.8398 H   0  0  0  0  0  0  0  0  0  0  0  0
    2.0376   -2.4145   -1.9386 H   0  0  0  0  0  0  0  0  0  0  0  0
    5.4096   -3.6085   -4.3201 H   0  0  0  0  0  0  0  0  0  0  0  0
    6.8424   -3.7577   -2.4214 H   0  0  0  0  0  0  0  0  0  0  0  0
    5.9844   -1.4264    0.4365 H   0  0  0  0  0  0  0  0  0  0  0  0
    5.9939   -1.1136   -1.2754 H   0  0  0  0  0  0  0  0  0  0  0  0
    7.3016   -2.0394   -0.5590 H   0  0  0  0  0  0  0  0  0  0  0  0
  2  1  1  1
  1 25  1  0
  1 26  1  0
  1 27  1  0
  2  9  1  0
  2 13  1  0
  2  3  1  0
  3  4  1  0
  3 28  1  0
  3 29  1  0
  4 20  1  0
  4 24  1  6
  4  5  1  0
  5  6  1  0
  5 30  1  0
  5 31  1  0
  6 13  1  0
  6  7  1  1
  6 22  1  0
  7  8  1  0
  7 32  1  0
  7 33  1  0
  8  9  1  0
  8 34  1  0
  8 35  1  0
  9 10  1  0
  9 36  1  6
 10 11  2  0
 10 14  1  0
 11 12  1  0
 11 37  1  0
 12 13  1  0
 12 38  1  0
 12 39  1  0
 13 40  1  6
 14 20  1  0
 14 15  1  0
 14 41  1  6
 15 16  1  0
 15 42  1  0
 15 43  1  0
 16 17  2  0
 16 18  1  0
 18 19  2  0
 18 44  1  0
 19 20  1  0
 19 45  1  0
 20 21  1  1
 21 46  1  0
 21 47  1  0
 21 48  1  0
 22 23  2  0
 22 24  1  0
M  END
>  <i_m_ct_stereo_status>  (293) 
1

>  <s_m_source_file>  (293) 
/var/tmp/pbs.5076255.sched01/tmpgyl_4d9e/126kfdajayx.sdf

>  <i_m_source_file_index>  (293) 
27

>  <i_lp_mmshare_version>  (293) 
48012

>  <i_f3d_flags>  (293) 
0

>  <s_epik_input>  (293) 
W0NIMl0xW0NIMl1bQ0BAXShbQ0gyXTIpKEMoPU8pTzMpW0NAQEhdKFtDSDJdW0NIXTQpW0NAXShbQ0gzXSkoW0NIMl01KVtDQEBIXTFDPTRbQ0BASF0oW0NAXTYoW0NAXTIzNSlbQ0gzXSlbQ0gyXUMoPU8pW0NIXT1bQ0hdNg==

>  <s_epik_cmdline>  (293) 
J2VwaWtfcHl0aG9uJywgJy1waHQnLCAnMi4wJywgJy1waCcsICc3LjAnLCAnLXRuJywgJzgnLCAnLW1hJywgJzIwMCcsICctaW1hZScsICc8aW5maWxlLm1hZT4nLCAnLW9tYWUnLCAnPG91dGZpbGUubWFlPic=

>  <r_lp_tautomer_probability>  (293) 
1

>  <r_epik_Ionization_Penalty>  (293) 
0

>  <r_epik_Ionization_Penalty_Charging>  (293) 
0

>  <r_epik_Ionization_Penalty_Neutral>  (293) 
0

>  <r_epik_State_Penalty>  (293) 
-0

>  <r_epik_Charging_Adjusted_Penalty>  (293) 
0

>  <i_epik_Tot_Q>  (293) 
0

>  <i_epik_Tot_abs_Q>  (293) 
0

>  <s_epik_Chemistry_Notes>  (293) 
This compound has an ester and may undergo hydrolysis at high or low pH.

>  <s_lp_Force_Field>  (293) 
OPLS3e

>  <r_lp_Energy>  (293) 
580.01

>  <b_lp_Chiralities_Consistent>  (293) 
1

>  <s_lp_Variant>  (293) 
102:0-1

>  <s_i_glide_gridfile>  (293) 
pfpi4k_grid

>  <i_i_glide_lignum>  (293) 
27

>  <i_i_glide_rotatable_bonds>  (293) 
0

>  <r_i_docking_score>  (293) 
-3.79561

>  <r_i_glide_ligand_efficiency>  (293) 
-0.15815

>  <r_i_glide_ligand_efficiency_sa>  (293) 
-0.456185

>  <r_i_glide_ligand_efficiency_ln>  (293) 
-0.908463

>  <r_i_glide_gscore>  (293) 
-3.79561

>  <r_i_glide_lipo>  (293) 
-0.798527

>  <r_i_glide_hbond>  (293) 
-0.148917

>  <r_i_glide_metal>  (293) 
-0

>  <r_i_glide_rewards>  (293) 
-1.42808

>  <r_i_glide_evdw>  (293) 
-25.3334

>  <r_i_glide_ecoul>  (293) 
-1.02279

>  <r_i_glide_erotb>  (293) 
0

>  <r_i_glide_esite>  (293) 
0

>  <r_i_glide_emodel>  (293) 
-31.8551

>  <r_i_glide_energy>  (293) 
-26.3562

>  <r_i_glide_einternal>  (293) 
0

>  <r_i_glide_intrahb_reward>  (293) 
-0

>  <i_i_glide_confnum>  (293) 
1

>  <i_i_glide_posenum>  (293) 
1

>  <r_i_glide_eff_state_penalty>  (293) 
0

>  <ligand_id>  (293) 
102

>  <original_smiles>  (293) 
CC12CC34CC5(CCC1C(=CCC52)C1CC(=O)C=CC13C)C(=O)O4

>  <smiles>  (293) 
[H]C1=C([H])C2(C([H])([H])[H])C([H])(C3=C([H])C([H])([H])C4([H])C56C(=O)OC2(C5([H])[H])C([H])([H])C4(C([H])([H])[H])C3([H])C([H])([H])C6([H])[H])C([H])([H])C1=O

$$$$
102:0:1
     RDKit          3D

 48 53  0  0  1  0  0  0  0  0999 V2000
    5.7376   -0.8280    1.3124 C   0  0  0  0  0  0  0  0  0  0  0  0
    4.8898   -2.1583    0.9463 C   0  0  1  0  0  0  0  0  0  0  0  0
    5.2403   -3.0775    2.1039 C   0  0  0  0  0  0  0  0  0  0  0  0
    5.7683   -4.4944    1.5145 C   0  0  2  0  0  0  0  0  0  0  0  0
    6.2584   -4.6989   -0.0435 C   0  0  0  0  0  0  0  0  0  0  0  0
    6.4048   -3.2401   -0.6913 C   0  0  2  0  0  0  0  0  0  0  0  0
    5.6927   -1.8661   -1.4359 C   0  0  0  0  0  0  0  0  0  0  0  0
    4.2709   -0.9946   -0.8697 C   0  0  0  0  0  0  0  0  0  0  0  0
    3.5903   -1.6693    0.5187 C   0  0  1  0  0  0  0  0  0  0  0  0
    2.6386   -2.9578    0.5540 C   0  0  0  0  0  0  0  0  0  0  0  0
    2.4351   -3.4817   -0.6749 C   0  0  0  0  0  0  0  0  0  0  0  0
    3.7519   -3.5182   -1.4424 C   0  0  0  0  0  0  0  0  0  0  0  0
    4.9670   -3.1710   -0.3728 C   0  0  2  0  0  0  0  0  0  0  0  0
    2.8089   -4.0827    1.7125 C   0  0  2  0  0  0  0  0  0  0  0  0
    2.1254   -3.5652    2.9970 C   0  0  0  0  0  0  0  0  0  0  0  0
    2.2155   -4.5096    4.1919 C   0  0  0  0  0  0  0  0  0  0  0  0
    1.2445   -4.5820    4.9388 O   0  0  0  0  0  0  0  0  0  0  0  0
    3.4508   -5.2751    4.4169 C   0  0  0  0  0  0  0  0  0  0  0  0
    4.3514   -5.4665    3.4350 C   0  0  0  0  0  0  0  0  0  0  0  0
    4.2435   -4.9992    1.9775 C   0  0  2  0  0  0  0  0  0  0  0  0
    4.0217   -6.3390    1.2251 C   0  0  0  0  0  0  0  0  0  0  0  0
    7.4424   -3.0189    0.4663 C   0  0  0  0  0  0  0  0  0  0  0  0
    8.4409   -2.3317    0.3399 O   0  0  0  0  0  0  0  0  0  0  0  0
    7.0302   -3.7908    1.6425 O   0  0  0  0  0  0  0  0  0  0  0  0
    6.6153   -0.9774    1.9408 H   0  0  0  0  0  0  0  0  0  0  0  0
    5.1188   -0.1333    1.8824 H   0  0  0  0  0  0  0  0  0  0  0  0
    6.1705   -0.2477    0.4995 H   0  0  0  0  0  0  0  0  0  0  0  0
    5.9026   -2.6145    2.8478 H   0  0  0  0  0  0  0  0  0  0  0  0
    4.5090   -3.0037    2.8976 H   0  0  0  0  0  0  0  0  0  0  0  0
    7.1953   -5.2587   -0.0314 H   0  0  0  0  0  0  0  0  0  0  0  0
    5.7026   -5.4134   -0.6612 H   0  0  0  0  0  0  0  0  0  0  0  0
    6.4580   -1.1090   -1.4620 H   0  0  0  0  0  0  0  0  0  0  0  0
    5.5984   -2.0795   -2.5110 H   0  0  0  0  0  0  0  0  0  0  0  0
    4.4973    0.0589   -0.7189 H   0  0  0  0  0  0  0  0  0  0  0  0
    3.5291   -0.9271   -1.6578 H   0  0  0  0  0  0  0  0  0  0  0  0
    3.1753   -0.9048    1.1735 H   0  0  0  0  0  0  0  0  0  0  0  0
    1.9139   -4.4223   -0.7813 H   0  0  0  0  0  0  0  0  0  0  0  0
    3.9385   -4.4955   -1.8682 H   0  0  0  0  0  0  0  0  0  0  0  0
    3.6279   -2.9172   -2.3397 H   0  0  0  0  0  0  0  0  0  0  0  0
    4.4162   -4.0571   -0.1312 H   0  0  0  0  0  0  0  0  0  0  0  0
    2.0979   -4.8398    1.3904 H   0  0  0  0  0  0  0  0  0  0  0  0
    2.5208   -2.5974    3.3021 H   0  0  0  0  0  0  0  0  0  0  0  0
    1.0701   -3.3968    2.7867 H   0  0  0  0  0  0  0  0  0  0  0  0
    3.6242   -5.6676    5.4127 H   0  0  0  0  0  0  0  0  0  0  0  0
    5.2532   -6.0221    3.6608 H   0  0  0  0  0  0  0  0  0  0  0  0
    3.8028   -6.2077    0.1649 H   0  0  0  0  0  0  0  0  0  0  0  0
    3.1833   -6.8958    1.6428 H   0  0  0  0  0  0  0  0  0  0  0  0
    4.8911   -6.9971    1.2991 H   0  0  0  0  0  0  0  0  0  0  0  0
  2  1  1  6
  1 25  1  0
  1 26  1  0
  1 27  1  0
  2  9  1  0
  2 13  1  0
  2  3  1  0
  3  4  1  0
  3 28  1  0
  3 29  1  0
  4 20  1  0
  4 24  1  1
  4  5  1  0
  5  6  1  0
  5 30  1  0
  5 31  1  0
  6 13  1  0
  6  7  1  6
  6 22  1  0
  7  8  1  0
  7 32  1  0
  7 33  1  0
  8  9  1  0
  8 34  1  0
  8 35  1  0
  9 10  1  0
  9 36  1  1
 10 11  2  0
 10 14  1  0
 11 12  1  0
 11 37  1  0
 12 13  1  0
 12 38  1  0
 12 39  1  0
 13 40  1  1
 14 20  1  0
 14 15  1  0
 14 41  1  6
 15 16  1  0
 15 42  1  0
 15 43  1  0
 16 17  2  0
 16 18  1  0
 18 19  2  0
 18 44  1  0
 19 20  1  0
 19 45  1  0
 20 21  1  6
 21 46  1  0
 21 47  1  0
 21 48  1  0
 22 23  2  0
 22 24  1  0
M  END
>  <i_m_ct_stereo_status>  (294) 
1

>  <s_m_source_file>  (294) 
/var/tmp/pbs.5076255.sched01/tmpgyl_4d9e/126kfdajayx.sdf

>  <i_m_source_file_index>  (294) 
27

>  <i_lp_mmshare_version>  (294) 
48012

>  <i_f3d_flags>  (294) 
0

>  <s_epik_input>  (294) 
W0NIMl0xW0NIMl1bQ0BAXShbQ0gyXTIpKEMoPU8pTzMpW0NAQEhdKFtDSDJdW0NIXTQpW0NAXShbQ0gzXSkoW0NIMl01KVtDQEBIXTFDPTRbQ0BASF0oW0NAXTYoW0NAXTIzNSlbQ0gzXSlbQ0gyXUMoPU8pW0NIXT1bQ0hdNg==

>  <s_epik_cmdline>  (294) 
J2VwaWtfcHl0aG9uJywgJy1waHQnLCAnMi4wJywgJy1waCcsICc3LjAnLCAnLXRuJywgJzgnLCAnLW1hJywgJzIwMCcsICctaW1hZScsICc8aW5maWxlLm1hZT4nLCAnLW9tYWUnLCAnPG91dGZpbGUubWFlPic=

>  <r_lp_tautomer_probability>  (294) 
1

>  <r_epik_Ionization_Penalty>  (294) 
0

>  <r_epik_Ionization_Penalty_Charging>  (294) 
0

>  <r_epik_Ionization_Penalty_Neutral>  (294) 
0

>  <r_epik_State_Penalty>  (294) 
-0

>  <r_epik_Charging_Adjusted_Penalty>  (294) 
0

>  <i_epik_Tot_Q>  (294) 
0

>  <i_epik_Tot_abs_Q>  (294) 
0

>  <s_epik_Chemistry_Notes>  (294) 
This compound has an ester and may undergo hydrolysis at high or low pH.

>  <s_lp_Force_Field>  (294) 
OPLS3e

>  <r_lp_Energy>  (294) 
580.01

>  <b_lp_Chiralities_Consistent>  (294) 
1

>  <s_lp_Variant>  (294) 
102:0-1

>  <s_i_glide_gridfile>  (294) 
pfpi4k_grid

>  <i_i_glide_lignum>  (294) 
27

>  <i_i_glide_rotatable_bonds>  (294) 
0

>  <r_i_docking_score>  (294) 
-2.84733

>  <r_i_glide_ligand_efficiency>  (294) 
-0.118639

>  <r_i_glide_ligand_efficiency_sa>  (294) 
-0.342214

>  <r_i_glide_ligand_efficiency_ln>  (294) 
-0.681497

>  <r_i_glide_gscore>  (294) 
-2.84733

>  <r_i_glide_lipo>  (294) 
-0.516817

>  <r_i_glide_hbond>  (294) 
0

>  <r_i_glide_metal>  (294) 
-0

>  <r_i_glide_rewards>  (294) 
-1.41386

>  <r_i_glide_evdw>  (294) 
-16.6555

>  <r_i_glide_ecoul>  (294) 
-0.559204

>  <r_i_glide_erotb>  (294) 
0

>  <r_i_glide_esite>  (294) 
0

>  <r_i_glide_emodel>  (294) 
-21.3214

>  <r_i_glide_energy>  (294) 
-17.2147

>  <r_i_glide_einternal>  (294) 
0

>  <r_i_glide_intrahb_reward>  (294) 
-0

>  <i_i_glide_confnum>  (294) 
2

>  <i_i_glide_posenum>  (294) 
26

>  <r_i_glide_eff_state_penalty>  (294) 
0

>  <ligand_id>  (294) 
102

>  <original_smiles>  (294) 
CC12CC34CC5(CCC1C(=CCC52)C1CC(=O)C=CC13C)C(=O)O4

>  <smiles>  (294) 
[H]C1=C([H])C2(C([H])([H])[H])C([H])(C3=C([H])C([H])([H])C4([H])C56C(=O)OC2(C5([H])[H])C([H])([H])C4(C([H])([H])[H])C3([H])C([H])([H])C6([H])[H])C([H])([H])C1=O

$$$$
102:0:2
     RDKit          3D

 48 53  0  0  1  0  0  0  0  0999 V2000
    5.4270   -0.7899    1.7567 C   0  0  0  0  0  0  0  0  0  0  0  0
    4.7758   -2.1773    1.2017 C   0  0  1  0  0  0  0  0  0  0  0  0
    5.3781   -3.1918    2.1549 C   0  0  0  0  0  0  0  0  0  0  0  0
    6.0721   -4.3778    1.2840 C   0  0  2  0  0  0  0  0  0  0  0  0
    6.4424   -4.2299   -0.3183 C   0  0  0  0  0  0  0  0  0  0  0  0
    6.2939   -2.6731   -0.6938 C   0  0  2  0  0  0  0  0  0  0  0  0
    5.3011   -1.3401   -1.1239 C   0  0  0  0  0  0  0  0  0  0  0  0
    3.8207   -0.8604   -0.3210 C   0  0  0  0  0  0  0  0  0  0  0  0
    3.3804   -1.8630    0.9575 C   0  0  1  0  0  0  0  0  0  0  0  0
    2.6522   -3.2820    0.8204 C   0  0  0  0  0  0  0  0  0  0  0  0
    2.4220   -3.6272   -0.4635 C   0  0  0  0  0  0  0  0  0  0  0  0
    3.6523   -3.3300   -1.3219 C   0  0  0  0  0  0  0  0  0  0  0  0
    4.8905   -2.9340   -0.2870 C   0  0  2  0  0  0  0  0  0  0  0  0
    3.1105   -4.5284    1.7498 C   0  0  2  0  0  0  0  0  0  0  0  0
    2.4694   -4.3532    3.1462 C   0  0  0  0  0  0  0  0  0  0  0  0
    2.8263   -5.4473    4.1495 C   0  0  0  0  0  0  0  0  0  0  0  0
    1.9627   -5.8028    4.9483 O   0  0  0  0  0  0  0  0  0  0  0  0
    4.1849   -6.0053    4.1565 C   0  0  0  0  0  0  0  0  0  0  0  0
    5.0107   -5.8766    3.0997 C   0  0  0  0  0  0  0  0  0  0  0  0
    4.6948   -5.2072    1.7563 C   0  0  2  0  0  0  0  0  0  0  0  0
    4.6178   -6.4283    0.8000 C   0  0  0  0  0  0  0  0  0  0  0  0
    7.3782   -2.4764    0.4196 C   0  0  0  0  0  0  0  0  0  0  0  0
    8.2317   -1.6004    0.3906 O   0  0  0  0  0  0  0  0  0  0  0  0
    7.2157   -3.4980    1.4426 O   0  0  0  0  0  0  0  0  0  0  0  0
    6.3708   -0.8790    2.2921 H   0  0  0  0  0  0  0  0  0  0  0  0
    4.7579   -0.3105    2.4728 H   0  0  0  0  0  0  0  0  0  0  0  0
    5.6954   -0.0201    1.0351 H   0  0  0  0  0  0  0  0  0  0  0  0
    6.0253   -2.7454    2.9190 H   0  0  0  0  0  0  0  0  0  0  0  0
    4.7216   -3.3746    2.9958 H   0  0  0  0  0  0  0  0  0  0  0  0
    7.4657   -4.6004   -0.4618 H   0  0  0  0  0  0  0  0  0  0  0  0
    5.9189   -4.9127   -1.0014 H   0  0  0  0  0  0  0  0  0  0  0  0
    5.9186   -0.4582   -1.0761 H   0  0  0  0  0  0  0  0  0  0  0  0
    5.1324   -1.3914   -2.2042 H   0  0  0  0  0  0  0  0  0  0  0  0
    3.8904    0.1574    0.0556 H   0  0  0  0  0  0  0  0  0  0  0  0
    3.0161   -0.7838   -1.0449 H   0  0  0  0  0  0  0  0  0  0  0  0
    2.9064   -1.2935    1.7583 H   0  0  0  0  0  0  0  0  0  0  0  0
    2.0483   -4.6152   -0.6876 H   0  0  0  0  0  0  0  0  0  0  0  0
    3.8857   -4.2127   -1.9286 H   0  0  0  0  0  0  0  0  0  0  0  0
    3.3569   -2.6067   -2.0757 H   0  0  0  0  0  0  0  0  0  0  0  0
    4.5125   -3.9283   -0.1677 H   0  0  0  0  0  0  0  0  0  0  0  0
    2.5000   -5.3350    1.3500 H   0  0  0  0  0  0  0  0  0  0  0  0
    2.7341   -3.3957    3.5940 H   0  0  0  0  0  0  0  0  0  0  0  0
    1.3855   -4.3372    3.0361 H   0  0  0  0  0  0  0  0  0  0  0  0
    4.5130   -6.5197    5.0523 H   0  0  0  0  0  0  0  0  0  0  0  0
    6.0058   -6.2966    3.1729 H   0  0  0  0  0  0  0  0  0  0  0  0
    4.2813   -6.1677   -0.2037 H   0  0  0  0  0  0  0  0  0  0  0  0
    3.9210   -7.1819    1.1694 H   0  0  0  0  0  0  0  0  0  0  0  0
    5.5856   -6.9251    0.7035 H   0  0  0  0  0  0  0  0  0  0  0  0
  2  1  1  6
  1 25  1  0
  1 26  1  0
  1 27  1  0
  2  9  1  0
  2 13  1  0
  2  3  1  0
  3  4  1  0
  3 28  1  0
  3 29  1  0
  4 20  1  0
  4 24  1  1
  4  5  1  0
  5  6  1  0
  5 30  1  0
  5 31  1  0
  6 13  1  0
  6  7  1  6
  6 22  1  0
  7  8  1  0
  7 32  1  0
  7 33  1  0
  8  9  1  0
  8 34  1  0
  8 35  1  0
  9 10  1  0
  9 36  1  1
 10 11  2  0
 10 14  1  0
 11 12  1  0
 11 37  1  0
 12 13  1  0
 12 38  1  0
 12 39  1  0
 13 40  1  1
 14 20  1  0
 14 15  1  0
 14 41  1  6
 15 16  1  0
 15 42  1  0
 15 43  1  0
 16 17  2  0
 16 18  1  0
 18 19  2  0
 18 44  1  0
 19 20  1  0
 19 45  1  0
 20 21  1  6
 21 46  1  0
 21 47  1  0
 21 48  1  0
 22 23  2  0
 22 24  1  0
M  END
>  <i_m_ct_stereo_status>  (295) 
1

>  <s_m_source_file>  (295) 
/var/tmp/pbs.5076255.sched01/tmpgyl_4d9e/126kfdajayx.sdf

>  <i_m_source_file_index>  (295) 
27

>  <i_lp_mmshare_version>  (295) 
48012

>  <i_f3d_flags>  (295) 
0

>  <s_epik_input>  (295) 
W0NIMl0xW0NIMl1bQ0BAXShbQ0gyXTIpKEMoPU8pTzMpW0NAQEhdKFtDSDJdW0NIXTQpW0NAXShbQ0gzXSkoW0NIMl01KVtDQEBIXTFDPTRbQ0BASF0oW0NAXTYoW0NAXTIzNSlbQ0gzXSlbQ0gyXUMoPU8pW0NIXT1bQ0hdNg==

>  <s_epik_cmdline>  (295) 
J2VwaWtfcHl0aG9uJywgJy1waHQnLCAnMi4wJywgJy1waCcsICc3LjAnLCAnLXRuJywgJzgnLCAnLW1hJywgJzIwMCcsICctaW1hZScsICc8aW5maWxlLm1hZT4nLCAnLW9tYWUnLCAnPG91dGZpbGUubWFlPic=

>  <r_lp_tautomer_probability>  (295) 
1

>  <r_epik_Ionization_Penalty>  (295) 
0

>  <r_epik_Ionization_Penalty_Charging>  (295) 
0

>  <r_epik_Ionization_Penalty_Neutral>  (295) 
0

>  <r_epik_State_Penalty>  (295) 
-0

>  <r_epik_Charging_Adjusted_Penalty>  (295) 
0

>  <i_epik_Tot_Q>  (295) 
0

>  <i_epik_Tot_abs_Q>  (295) 
0

>  <s_epik_Chemistry_Notes>  (295) 
This compound has an ester and may undergo hydrolysis at high or low pH.

>  <s_lp_Force_Field>  (295) 
OPLS3e

>  <r_lp_Energy>  (295) 
580.01

>  <b_lp_Chiralities_Consistent>  (295) 
1

>  <s_lp_Variant>  (295) 
102:0-1

>  <s_i_glide_gridfile>  (295) 
pfpi4k_grid

>  <i_i_glide_lignum>  (295) 
27

>  <i_i_glide_rotatable_bonds>  (295) 
0

>  <r_i_docking_score>  (295) 
-2.83074

>  <r_i_glide_ligand_efficiency>  (295) 
-0.117947

>  <r_i_glide_ligand_efficiency_sa>  (295) 
-0.340219

>  <r_i_glide_ligand_efficiency_ln>  (295) 
-0.677526

>  <r_i_glide_gscore>  (295) 
-2.83074

>  <r_i_glide_lipo>  (295) 
-0.495731

>  <r_i_glide_hbond>  (295) 
-0.0215627

>  <r_i_glide_metal>  (295) 
-0

>  <r_i_glide_rewards>  (295) 
-1.409

>  <r_i_glide_evdw>  (295) 
-15.7667

>  <r_i_glide_ecoul>  (295) 
-0.773995

>  <r_i_glide_erotb>  (295) 
0

>  <r_i_glide_esite>  (295) 
-8.62959e-06

>  <r_i_glide_emodel>  (295) 
-20.6309

>  <r_i_glide_energy>  (295) 
-16.5407

>  <r_i_glide_einternal>  (295) 
0

>  <r_i_glide_intrahb_reward>  (295) 
-0

>  <i_i_glide_confnum>  (295) 
2

>  <i_i_glide_posenum>  (295) 
34

>  <r_i_glide_eff_state_penalty>  (295) 
0

>  <ligand_id>  (295) 
102

>  <original_smiles>  (295) 
CC12CC34CC5(CCC1C(=CCC52)C1CC(=O)C=CC13C)C(=O)O4

>  <smiles>  (295) 
[H]C1=C([H])C2(C([H])([H])[H])C([H])(C3=C([H])C([H])([H])C4([H])C56C(=O)OC2(C5([H])[H])C([H])([H])C4(C([H])([H])[H])C3([H])C([H])([H])C6([H])[H])C([H])([H])C1=O

$$$$
103:0:0
     RDKit          3D

 26 27  0  0  1  0  0  0  0  0999 V2000
   -2.6698    3.0078    6.0424 C   0  0  0  0  0  0  0  0  0  0  0  0
   -1.8017    2.5205    4.9680 N   0  0  0  0  0  0  0  0  0  0  0  0
   -1.5503    3.2660    3.8404 C   0  0  0  0  0  0  0  0  0  0  0  0
   -2.0255    4.3968    3.6819 O   0  0  0  0  0  0  0  0  0  0  0  0
   -0.7396    2.7152    2.8856 N   0  0  0  0  0  0  0  0  0  0  0  0
   -0.1225    1.5085    2.9315 C   0  0  0  0  0  0  0  0  0  0  0  0
    0.6048    1.0759    2.0422 O   0  0  0  0  0  0  0  0  0  0  0  0
   -0.3957    0.7612    4.1660 C   0  0  0  0  0  0  0  0  0  0  0  0
   -1.2038    1.2440    5.1435 C   0  0  0  0  0  0  0  0  0  0  0  0
   -1.3103    0.3546    6.2070 N   0  0  0  0  0  0  0  0  0  0  0  0
   -0.5196   -0.6438    5.8083 C   0  0  0  0  0  0  0  0  0  0  0  0
    0.0563   -0.4947    4.5913 N   0  0  0  0  0  0  0  0  0  0  0  0
    0.9694   -1.4372    3.9429 C   0  0  0  0  0  0  0  0  0  0  0  0
    0.6360   -2.8987    4.3202 C   0  0  0  0  0  0  0  0  0  0  0  0
    1.5477   -3.9205    3.6388 C   0  0  0  0  0  0  0  0  0  0  0  0
    1.0155   -4.9925    3.2680 O   0  0  0  0  0  0  0  0  0  0  0  0
    2.7593   -3.6355    3.5282 O   0  0  0  0  0  0  0  0  0  0  0  0
   -0.5522    3.2869    2.0610 H   0  0  0  0  0  0  0  0  0  0  0  0
   -3.3872    3.7449    5.6891 H   0  0  0  0  0  0  0  0  0  0  0  0
   -2.0833    3.4578    6.8428 H   0  0  0  0  0  0  0  0  0  0  0  0
   -3.2514    2.1953    6.4811 H   0  0  0  0  0  0  0  0  0  0  0  0
   -0.3633   -1.5184    6.4256 H   0  0  0  0  0  0  0  0  0  0  0  0
    0.9166   -1.3147    2.8589 H   0  0  0  0  0  0  0  0  0  0  0  0
    1.9866   -1.1837    4.2449 H   0  0  0  0  0  0  0  0  0  0  0  0
    0.7540   -3.0646    5.3896 H   0  0  0  0  0  0  0  0  0  0  0  0
   -0.4030   -3.1106    4.0805 H   0  0  0  0  0  0  0  0  0  0  0  0
  1  2  1  0
  1 19  1  0
  1 20  1  0
  1 21  1  0
  2  9  1  0
  2  3  1  0
  3  4  2  0
  3  5  1  0
  5 18  1  0
  5  6  1  0
  6  7  2  0
  6  8  1  0
  8 12  1  0
  8  9  2  0
  9 10  1  0
 10 11  2  0
 11 12  1  0
 11 22  1  0
 12 13  1  0
 13 14  1  0
 13 23  1  0
 13 24  1  0
 14 15  1  0
 14 25  1  0
 14 26  1  0
 15 16  2  0
 15 17  1  0
M  CHG  1  17  -1
M  END
>  <i_m_ct_stereo_status>  (296) 
1

>  <s_m_source_file>  (296) 
/var/tmp/pbs.5076255.sched01/tmpgyl_4d9e/126kfdajayx.sdf

>  <i_m_source_file_index>  (296) 
28

>  <i_lp_mmshare_version>  (296) 
48012

>  <i_f3d_flags>  (296) 
0

>  <s_epik_input>  (296) 
Tz1jMVtuSF1jKD1PKW4oW0NIM10pYyhjMTIpbltjSF1uMltDSDJdW0NIMl1DKD1PKVtPSF0=

>  <s_epik_cmdline>  (296) 
J2VwaWtfcHl0aG9uJywgJy1waHQnLCAnMi4wJywgJy1waCcsICc3LjAnLCAnLXRuJywgJzgnLCAnLW1hJywgJzIwMCcsICctaW1hZScsICc8aW5maWxlLm1hZT4nLCAnLW9tYWUnLCAnPG91dGZpbGUubWFlPic=

>  <r_lp_tautomer_probability>  (296) 
1

>  <r_epik_Ionization_Penalty>  (296) 
0.00271745

>  <r_epik_Ionization_Penalty_Charging>  (296) 
0.00271663

>  <r_epik_Ionization_Penalty_Neutral>  (296) 
8.2119e-07

>  <r_epik_State_Penalty>  (296) 
-0

>  <r_epik_Charging_Adjusted_Penalty>  (296) 
0.00271663

>  <i_epik_Tot_Q>  (296) 
-1

>  <i_epik_Tot_abs_Q>  (296) 
1

>  <s_lp_Force_Field>  (296) 
OPLS3e

>  <r_lp_Energy>  (296) 
1.30319

>  <b_lp_Chiralities_Consistent>  (296) 
1

>  <s_lp_Variant>  (296) 
103:0-1

>  <s_i_glide_gridfile>  (296) 
pfpi4k_grid

>  <i_i_glide_lignum>  (296) 
28

>  <i_i_glide_rotatable_bonds>  (296) 
3

>  <r_i_docking_score>  (296) 
-3.70605

>  <r_i_glide_ligand_efficiency>  (296) 
-0.218003

>  <r_i_glide_ligand_efficiency_sa>  (296) 
-0.560547

>  <r_i_glide_ligand_efficiency_ln>  (296) 
-0.966826

>  <r_i_glide_gscore>  (296) 
-3.70605

>  <r_i_glide_lipo>  (296) 
-0.125657

>  <r_i_glide_hbond>  (296) 
-0.383307

>  <r_i_glide_metal>  (296) 
-0

>  <r_i_glide_rewards>  (296) 
-1.79419

>  <r_i_glide_evdw>  (296) 
-17.7674

>  <r_i_glide_ecoul>  (296) 
-6.04738

>  <r_i_glide_erotb>  (296) 
0.612658

>  <r_i_glide_esite>  (296) 
-0.220085

>  <r_i_glide_emodel>  (296) 
-32.2963

>  <r_i_glide_energy>  (296) 
-23.8147

>  <r_i_glide_einternal>  (296) 
1.55376

>  <r_i_glide_intrahb_reward>  (296) 
-0

>  <i_i_glide_confnum>  (296) 
5

>  <i_i_glide_posenum>  (296) 
38

>  <r_i_glide_eff_state_penalty>  (296) 
0

>  <ligand_id>  (296) 
103

>  <original_smiles>  (296) 
Cn1c(=O)[nH]c(=O)c2c1ncn2CCC(=O)O

>  <smiles>  (296) 
[H]c1nc2c(c(=O)n([H])c(=O)n2C([H])([H])[H])n1C([H])([H])C([H])([H])C(=O)[O-]

$$$$
103:0:1
     RDKit          3D

 26 27  0  0  1  0  0  0  0  0999 V2000
    0.3835   -7.6422    2.2429 C   0  0  0  0  0  0  0  0  0  0  0  0
    1.8225   -7.6940    1.9659 N   0  0  0  0  0  0  0  0  0  0  0  0
    2.5869   -8.7745    2.3343 C   0  0  0  0  0  0  0  0  0  0  0  0
    2.1119   -9.7551    2.9091 O   0  0  0  0  0  0  0  0  0  0  0  0
    3.9251   -8.7196    2.0523 N   0  0  0  0  0  0  0  0  0  0  0  0
    4.6066   -7.7102    1.4503 C   0  0  0  0  0  0  0  0  0  0  0  0
    5.8227   -7.7171    1.2883 O   0  0  0  0  0  0  0  0  0  0  0  0
    3.7392   -6.5988    1.0365 C   0  0  0  0  0  0  0  0  0  0  0  0
    2.4048   -6.5986    1.2830 C   0  0  0  0  0  0  0  0  0  0  0  0
    1.7965   -5.4665    0.7776 N   0  0  0  0  0  0  0  0  0  0  0  0
    2.8156   -4.8083    0.2388 C   0  0  0  0  0  0  0  0  0  0  0  0
    4.0263   -5.4055    0.3617 N   0  0  0  0  0  0  0  0  0  0  0  0
    5.2849   -4.9092   -0.1915 C   0  0  0  0  0  0  0  0  0  0  0  0
    5.4471   -3.3744   -0.0176 C   0  0  0  0  0  0  0  0  0  0  0  0
    6.3119   -2.7296   -1.0985 C   0  0  0  0  0  0  0  0  0  0  0  0
    6.1189   -3.0590   -2.2879 O   0  0  0  0  0  0  0  0  0  0  0  0
    7.1236   -1.8570   -0.7249 O   0  0  0  0  0  0  0  0  0  0  0  0
    4.4681   -9.5186    2.3504 H   0  0  0  0  0  0  0  0  0  0  0  0
    0.0906   -8.2691    3.0819 H   0  0  0  0  0  0  0  0  0  0  0  0
   -0.1818   -7.9600    1.3658 H   0  0  0  0  0  0  0  0  0  0  0  0
    0.0676   -6.6257    2.4912 H   0  0  0  0  0  0  0  0  0  0  0  0
    2.6557   -3.8650   -0.2627 H   0  0  0  0  0  0  0  0  0  0  0  0
    6.1244   -5.4040    0.2956 H   0  0  0  0  0  0  0  0  0  0  0  0
    5.3073   -5.2085   -1.2391 H   0  0  0  0  0  0  0  0  0  0  0  0
    4.5035   -2.8382   -0.1061 H   0  0  0  0  0  0  0  0  0  0  0  0
    5.8182   -3.1481    0.9848 H   0  0  0  0  0  0  0  0  0  0  0  0
  1  2  1  0
  1 19  1  0
  1 20  1  0
  1 21  1  0
  2  9  1  0
  2  3  1  0
  3  4  2  0
  3  5  1  0
  5 18  1  0
  5  6  1  0
  6  7  2  0
  6  8  1  0
  8 12  1  0
  8  9  2  0
  9 10  1  0
 10 11  2  0
 11 12  1  0
 11 22  1  0
 12 13  1  0
 13 14  1  0
 13 23  1  0
 13 24  1  0
 14 15  1  0
 14 25  1  0
 14 26  1  0
 15 16  2  0
 15 17  1  0
M  CHG  1  17  -1
M  END
>  <i_m_ct_stereo_status>  (297) 
1

>  <s_m_source_file>  (297) 
/var/tmp/pbs.5076255.sched01/tmpgyl_4d9e/126kfdajayx.sdf

>  <i_m_source_file_index>  (297) 
28

>  <i_lp_mmshare_version>  (297) 
48012

>  <i_f3d_flags>  (297) 
0

>  <s_epik_input>  (297) 
Tz1jMVtuSF1jKD1PKW4oW0NIM10pYyhjMTIpbltjSF1uMltDSDJdW0NIMl1DKD1PKVtPSF0=

>  <s_epik_cmdline>  (297) 
J2VwaWtfcHl0aG9uJywgJy1waHQnLCAnMi4wJywgJy1waCcsICc3LjAnLCAnLXRuJywgJzgnLCAnLW1hJywgJzIwMCcsICctaW1hZScsICc8aW5maWxlLm1hZT4nLCAnLW9tYWUnLCAnPG91dGZpbGUubWFlPic=

>  <r_lp_tautomer_probability>  (297) 
1

>  <r_epik_Ionization_Penalty>  (297) 
0.00271745

>  <r_epik_Ionization_Penalty_Charging>  (297) 
0.00271663

>  <r_epik_Ionization_Penalty_Neutral>  (297) 
8.2119e-07

>  <r_epik_State_Penalty>  (297) 
-0

>  <r_epik_Charging_Adjusted_Penalty>  (297) 
0.00271663

>  <i_epik_Tot_Q>  (297) 
-1

>  <i_epik_Tot_abs_Q>  (297) 
1

>  <s_lp_Force_Field>  (297) 
OPLS3e

>  <r_lp_Energy>  (297) 
1.30319

>  <b_lp_Chiralities_Consistent>  (297) 
1

>  <s_lp_Variant>  (297) 
103:0-1

>  <s_i_glide_gridfile>  (297) 
pfpi4k_grid

>  <i_i_glide_lignum>  (297) 
28

>  <i_i_glide_rotatable_bonds>  (297) 
3

>  <r_i_docking_score>  (297) 
-3.42304

>  <r_i_glide_ligand_efficiency>  (297) 
-0.201355

>  <r_i_glide_ligand_efficiency_sa>  (297) 
-0.517741

>  <r_i_glide_ligand_efficiency_ln>  (297) 
-0.892995

>  <r_i_glide_gscore>  (297) 
-3.42304

>  <r_i_glide_lipo>  (297) 
-0.208523

>  <r_i_glide_hbond>  (297) 
-0.308053

>  <r_i_glide_metal>  (297) 
-0

>  <r_i_glide_rewards>  (297) 
-1.83757

>  <r_i_glide_evdw>  (297) 
-18.508

>  <r_i_glide_ecoul>  (297) 
-4.28848

>  <r_i_glide_erotb>  (297) 
0.612658

>  <r_i_glide_esite>  (297) 
-0.112884

>  <r_i_glide_emodel>  (297) 
-30.0284

>  <r_i_glide_energy>  (297) 
-22.7964

>  <r_i_glide_einternal>  (297) 
2.49472

>  <r_i_glide_intrahb_reward>  (297) 
-0

>  <i_i_glide_confnum>  (297) 
4

>  <i_i_glide_posenum>  (297) 
3

>  <r_i_glide_eff_state_penalty>  (297) 
0

>  <ligand_id>  (297) 
103

>  <original_smiles>  (297) 
Cn1c(=O)[nH]c(=O)c2c1ncn2CCC(=O)O

>  <smiles>  (297) 
[H]c1nc2c(c(=O)n([H])c(=O)n2C([H])([H])[H])n1C([H])([H])C([H])([H])C(=O)[O-]

$$$$
103:0:2
     RDKit          3D

 26 27  0  0  1  0  0  0  0  0999 V2000
    1.4157   -1.2042    2.5332 C   0  0  0  0  0  0  0  0  0  0  0  0
    1.2060    0.2127    2.8372 N   0  0  0  0  0  0  0  0  0  0  0  0
    2.0520    1.1860    2.3756 C   0  0  0  0  0  0  0  0  0  0  0  0
    3.0258    0.9303    1.6694 O   0  0  0  0  0  0  0  0  0  0  0  0
    1.7859    2.4778    2.7374 N   0  0  0  0  0  0  0  0  0  0  0  0
    0.7507    2.9336    3.4984 C   0  0  0  0  0  0  0  0  0  0  0  0
    0.5880    4.1094    3.8137 O   0  0  0  0  0  0  0  0  0  0  0  0
   -0.1632    1.8620    3.9105 C   0  0  0  0  0  0  0  0  0  0  0  0
    0.0685    0.5591    3.5990 C   0  0  0  0  0  0  0  0  0  0  0  0
   -0.9225   -0.2702    4.0881 N   0  0  0  0  0  0  0  0  0  0  0  0
   -1.7260    0.6032    4.6705 C   0  0  0  0  0  0  0  0  0  0  0  0
   -1.3448    1.8947    4.6453 N   0  0  0  0  0  0  0  0  0  0  0  0
   -2.0265    3.0217    5.2767 C   0  0  0  0  0  0  0  0  0  0  0  0
   -1.6404    3.2149    6.7711 C   0  0  0  0  0  0  0  0  0  0  0  0
   -2.1886    2.1530    7.7400 C   0  0  0  0  0  0  0  0  0  0  0  0
   -2.6060    2.5714    8.8420 O   0  0  0  0  0  0  0  0  0  0  0  0
   -2.1857    0.9475    7.3869 O   0  0  0  0  0  0  0  0  0  0  0  0
    2.4239    3.1781    2.3933 H   0  0  0  0  0  0  0  0  0  0  0  0
    2.4552   -1.4316    2.3051 H   0  0  0  0  0  0  0  0  0  0  0  0
    0.8069   -1.4897    1.6778 H   0  0  0  0  0  0  0  0  0  0  0  0
    1.1294   -1.8349    3.3763 H   0  0  0  0  0  0  0  0  0  0  0  0
   -2.6020    0.2689    5.1743 H   0  0  0  0  0  0  0  0  0  0  0  0
   -1.8000    3.9322    4.7090 H   0  0  0  0  0  0  0  0  0  0  0  0
   -3.1019    2.8871    5.1674 H   0  0  0  0  0  0  0  0  0  0  0  0
   -0.5571    3.2560    6.8661 H   0  0  0  0  0  0  0  0  0  0  0  0
   -2.0082    4.1855    7.1075 H   0  0  0  0  0  0  0  0  0  0  0  0
  1  2  1  0
  1 19  1  0
  1 20  1  0
  1 21  1  0
  2  9  1  0
  2  3  1  0
  3  4  2  0
  3  5  1  0
  5 18  1  0
  5  6  1  0
  6  7  2  0
  6  8  1  0
  8 12  1  0
  8  9  2  0
  9 10  1  0
 10 11  2  0
 11 12  1  0
 11 22  1  0
 12 13  1  0
 13 14  1  0
 13 23  1  0
 13 24  1  0
 14 15  1  0
 14 25  1  0
 14 26  1  0
 15 16  2  0
 15 17  1  0
M  CHG  1  17  -1
M  END
>  <i_m_ct_stereo_status>  (298) 
1

>  <s_m_source_file>  (298) 
/var/tmp/pbs.5076255.sched01/tmpgyl_4d9e/126kfdajayx.sdf

>  <i_m_source_file_index>  (298) 
28

>  <i_lp_mmshare_version>  (298) 
48012

>  <i_f3d_flags>  (298) 
0

>  <s_epik_input>  (298) 
Tz1jMVtuSF1jKD1PKW4oW0NIM10pYyhjMTIpbltjSF1uMltDSDJdW0NIMl1DKD1PKVtPSF0=

>  <s_epik_cmdline>  (298) 
J2VwaWtfcHl0aG9uJywgJy1waHQnLCAnMi4wJywgJy1waCcsICc3LjAnLCAnLXRuJywgJzgnLCAnLW1hJywgJzIwMCcsICctaW1hZScsICc8aW5maWxlLm1hZT4nLCAnLW9tYWUnLCAnPG91dGZpbGUubWFlPic=

>  <r_lp_tautomer_probability>  (298) 
1

>  <r_epik_Ionization_Penalty>  (298) 
0.00271745

>  <r_epik_Ionization_Penalty_Charging>  (298) 
0.00271663

>  <r_epik_Ionization_Penalty_Neutral>  (298) 
8.2119e-07

>  <r_epik_State_Penalty>  (298) 
-0

>  <r_epik_Charging_Adjusted_Penalty>  (298) 
0.00271663

>  <i_epik_Tot_Q>  (298) 
-1

>  <i_epik_Tot_abs_Q>  (298) 
1

>  <s_lp_Force_Field>  (298) 
OPLS3e

>  <r_lp_Energy>  (298) 
1.30319

>  <b_lp_Chiralities_Consistent>  (298) 
1

>  <s_lp_Variant>  (298) 
103:0-1

>  <s_i_glide_gridfile>  (298) 
pfpi4k_grid

>  <i_i_glide_lignum>  (298) 
28

>  <i_i_glide_rotatable_bonds>  (298) 
3

>  <r_i_docking_score>  (298) 
-3.02377

>  <r_i_glide_ligand_efficiency>  (298) 
-0.177869

>  <r_i_glide_ligand_efficiency_sa>  (298) 
-0.457351

>  <r_i_glide_ligand_efficiency_ln>  (298) 
-0.788834

>  <r_i_glide_gscore>  (298) 
-3.02377

>  <r_i_glide_lipo>  (298) 
-0.0460408

>  <r_i_glide_hbond>  (298) 
-0.2

>  <r_i_glide_metal>  (298) 
-0

>  <r_i_glide_rewards>  (298) 
-1.81928

>  <r_i_glide_evdw>  (298) 
-18.0036

>  <r_i_glide_ecoul>  (298) 
-3.31372

>  <r_i_glide_erotb>  (298) 
0.612658

>  <r_i_glide_esite>  (298) 
-0.173869

>  <r_i_glide_emodel>  (298) 
-27.4986

>  <r_i_glide_energy>  (298) 
-21.3173

>  <r_i_glide_einternal>  (298) 
1.62716

>  <r_i_glide_intrahb_reward>  (298) 
-0

>  <i_i_glide_confnum>  (298) 
3

>  <i_i_glide_posenum>  (298) 
28

>  <r_i_glide_eff_state_penalty>  (298) 
0

>  <ligand_id>  (298) 
103

>  <original_smiles>  (298) 
Cn1c(=O)[nH]c(=O)c2c1ncn2CCC(=O)O

>  <smiles>  (298) 
[H]c1nc2c(c(=O)n([H])c(=O)n2C([H])([H])[H])n1C([H])([H])C([H])([H])C(=O)[O-]

$$$$
104:1:0
     RDKit          3D

 44 48  0  0  1  0  0  0  0  0999 V2000
    5.3110   -1.8837    3.1972 C   0  0  0  0  0  0  0  0  0  0  0  0
    4.3673   -1.2650    2.1464 C   0  0  2  0  0  0  0  0  0  0  0  0
    2.9748   -1.1604    2.6847 N   0  0  0  0  0  0  0  0  0  0  0  0
    2.3926   -2.2029    3.3203 C   0  0  0  0  0  0  0  0  0  0  0  0
    1.1455   -2.1872    3.8137 N   0  0  0  0  0  0  0  0  0  0  0  0
    0.3918   -1.0773    3.7036 C   0  0  0  0  0  0  0  0  0  0  0  0
    0.9254    0.0452    3.0603 C   0  0  0  0  0  0  0  0  0  0  0  0
    0.4925    1.3214    2.7425 N   0  0  0  0  0  0  0  0  0  0  0  0
    1.5148    1.9023    2.0935 C   0  0  0  0  0  0  0  0  0  0  0  0
    2.6133    1.1600    1.9466 N   0  0  0  0  0  0  0  0  0  0  0  0
    2.2524   -0.0356    2.5548 C   0  0  0  0  0  0  0  0  0  0  0  0
    4.4171   -1.9519    0.7411 C   0  0  1  0  0  0  0  0  0  0  0  0
    3.7713   -3.3696    0.7395 C   0  0  0  0  0  0  0  0  0  0  0  0
    3.8335   -3.9951   -0.6595 C   0  0  2  0  0  0  0  0  0  0  0  0
    5.3041   -4.1279   -1.0888 C   0  0  0  0  0  0  0  0  0  0  0  0
    5.9418   -2.7257   -1.1552 C   0  0  1  0  0  0  0  0  0  0  0  0
    5.1777   -1.8419   -2.1581 C   0  0  0  0  0  0  0  0  0  0  0  0
    3.7142   -1.7114   -1.6998 C   0  0  1  0  0  0  0  0  0  0  0  0
    3.0551   -3.1034   -1.6486 C   0  0  0  0  0  0  0  0  0  0  0  0
    3.6731   -1.0710   -0.2969 C   0  0  0  0  0  0  0  0  0  0  0  0
    5.8905   -2.0831    0.2448 C   0  0  0  0  0  0  0  0  0  0  0  0
    6.3381   -1.7284    2.8793 H   0  0  0  0  0  0  0  0  0  0  0  0
    5.1700   -2.9554    3.3227 H   0  0  0  0  0  0  0  0  0  0  0  0
    5.2014   -1.4068    4.1718 H   0  0  0  0  0  0  0  0  0  0  0  0
    4.7307   -0.2395    2.0236 H   0  0  0  0  0  0  0  0  0  0  0  0
    2.9607   -3.1182    3.4030 H   0  0  0  0  0  0  0  0  0  0  0  0
   -0.6126   -1.0892    4.1144 H   0  0  0  0  0  0  0  0  0  0  0  0
    1.4632    2.9152    1.7223 H   0  0  0  0  0  0  0  0  0  0  0  0
    4.2706   -4.0229    1.4557 H   0  0  0  0  0  0  0  0  0  0  0  0
    2.7178   -3.3313    1.0108 H   0  0  0  0  0  0  0  0  0  0  0  0
    3.3731   -4.9805   -0.6216 H   0  0  0  0  0  0  0  0  0  0  0  0
    5.8392   -4.7509   -0.3706 H   0  0  0  0  0  0  0  0  0  0  0  0
    5.3686   -4.6291   -2.0531 H   0  0  0  0  0  0  0  0  0  0  0  0
    6.9821   -2.8189   -1.4627 H   0  0  0  0  0  0  0  0  0  0  0  0
    5.6332   -0.8539   -2.2158 H   0  0  0  0  0  0  0  0  0  0  0  0
    5.2269   -2.2772   -3.1548 H   0  0  0  0  0  0  0  0  0  0  0  0
    3.1668   -1.0762   -2.3953 H   0  0  0  0  0  0  0  0  0  0  0  0
    3.0358   -3.5523   -2.6405 H   0  0  0  0  0  0  0  0  0  0  0  0
    2.0152   -3.0176   -1.3320 H   0  0  0  0  0  0  0  0  0  0  0  0
    2.6350   -0.9324    0.0015 H   0  0  0  0  0  0  0  0  0  0  0  0
    4.1328   -0.0827   -0.3209 H   0  0  0  0  0  0  0  0  0  0  0  0
    6.3693   -1.1020    0.2330 H   0  0  0  0  0  0  0  0  0  0  0  0
    6.4772   -2.7122    0.9144 H   0  0  0  0  0  0  0  0  0  0  0  0
   -0.3963    1.7763    2.9248 H   0  0  0  0  0  0  0  0  0  0  0  0
  1  2  1  0
  1 22  1  0
  1 23  1  0
  1 24  1  0
  2  3  1  0
  2 12  1  0
  2 25  1  6
  3 11  2  0
  3  4  1  0
  4  5  2  0
  4 26  1  0
  5  6  1  0
  6  7  2  0
  6 27  1  0
  7 11  1  0
  7  8  1  0
  8  9  1  0
  8 44  1  0
  9 10  2  0
  9 28  1  0
 10 11  1  0
 12 20  1  6
 12 21  1  0
 12 13  1  0
 13 14  1  0
 13 29  1  0
 13 30  1  0
 14 19  1  0
 14 15  1  0
 14 31  1  1
 15 16  1  0
 15 32  1  0
 15 33  1  0
 16 17  1  0
 16 21  1  0
 16 34  1  6
 17 18  1  0
 17 35  1  0
 17 36  1  0
 18 19  1  0
 18 20  1  0
 18 37  1  6
 19 38  1  0
 19 39  1  0
 20 40  1  0
 20 41  1  0
 21 42  1  0
 21 43  1  0
M  CHG  1   3   1
M  END
>  <i_m_ct_stereo_status>  (299) 
1

>  <s_m_source_file>  (299) 
/var/tmp/pbs.5076255.sched01/tmpgyl_4d9e/126kfdajayx.sdf

>  <i_m_source_file_index>  (299) 
30

>  <i_lp_mmshare_version>  (299) 
48012

>  <i_f3d_flags>  (299) 
0

>  <s_epik_input>  (299) 
bjFbY0hdbmMoYzEyKW4oW2NIXW5bY0hdMilbQ0BASF0oW0NIM10pQzM0W0NIMl1bQ0BIXTVbQ0gyXVtDQEBIXShbQ0gyXTQpW0NIMl1bQ0BIXShbQ0gyXTUpW0NIMl0z

>  <s_epik_cmdline>  (299) 
J2VwaWtfcHl0aG9uJywgJy1waHQnLCAnMi4wJywgJy1waCcsICc3LjAnLCAnLXRuJywgJzgnLCAnLW1hJywgJzIwMCcsICctaW1hZScsICc8aW5maWxlLm1hZT4nLCAnLW9tYWUnLCAnPG91dGZpbGUubWFlPic=

>  <r_lp_tautomer_probability>  (299) 
0.995019

>  <r_epik_Ionization_Penalty>  (299) 
3.11711

>  <r_epik_Ionization_Penalty_Charging>  (299) 
1.59045e-11

>  <r_epik_Ionization_Penalty_Neutral>  (299) 
3.11711

>  <r_epik_State_Penalty>  (299) 
2.03643

>  <r_epik_Charging_Adjusted_Penalty>  (299) 
2.03643

>  <i_epik_Tot_Q>  (299) 
1

>  <i_epik_Tot_abs_Q>  (299) 
1

>  <s_lp_Force_Field>  (299) 
OPLS3e

>  <r_lp_Energy>  (299) 
25.0756

>  <b_lp_Chiralities_Consistent>  (299) 
1

>  <s_lp_Variant>  (299) 
104:0-2

>  <s_i_glide_gridfile>  (299) 
pfpi4k_grid

>  <i_i_glide_lignum>  (299) 
30

>  <i_i_glide_rotatable_bonds>  (299) 
2

>  <r_i_docking_score>  (299) 
-2.9116

>  <r_i_glide_ligand_efficiency>  (299) 
-0.138648

>  <r_i_glide_ligand_efficiency_sa>  (299) 
-0.382519

>  <r_i_glide_ligand_efficiency_ln>  (299) 
-0.719888

>  <r_i_glide_gscore>  (299) 
-2.9116

>  <r_i_glide_lipo>  (299) 
-0.180975

>  <r_i_glide_hbond>  (299) 
0

>  <r_i_glide_metal>  (299) 
-0

>  <r_i_glide_rewards>  (299) 
-1.47688

>  <r_i_glide_evdw>  (299) 
-19.6389

>  <r_i_glide_ecoul>  (299) 
-4.09228

>  <r_i_glide_erotb>  (299) 
0.45099

>  <r_i_glide_esite>  (299) 
-0.108954

>  <r_i_glide_emodel>  (299) 
-27.9186

>  <r_i_glide_energy>  (299) 
-23.7312

>  <r_i_glide_einternal>  (299) 
0.66094

>  <r_i_glide_intrahb_reward>  (299) 
-0

>  <i_i_glide_confnum>  (299) 
3

>  <i_i_glide_posenum>  (299) 
1

>  <r_i_glide_eff_state_penalty>  (299) 
0

>  <ligand_id>  (299) 
104

>  <original_smiles>  (299) 
CC(n1cncc2ncnc1-2)C12CC3CC(CC(C3)C1)C2

>  <smiles>  (299) 
[H]c1nc([H])[n+](C([H])(C([H])([H])[H])C23C([H])([H])C4([H])C([H])([H])C([H])(C([H])([H])C([H])(C4([H])[H])C2([H])[H])C3([H])[H])c2nc([H])n([H])c12

$$$$
104:1:1
     RDKit          3D

 44 48  0  0  1  0  0  0  0  0999 V2000
    6.4009   -1.3450    0.9511 C   0  0  0  0  0  0  0  0  0  0  0  0
    4.9430   -1.0923    0.4797 C   0  0  2  0  0  0  0  0  0  0  0  0
    3.9753   -1.4434    1.5810 N   0  0  0  0  0  0  0  0  0  0  0  0
    3.9962   -2.6587    2.1607 C   0  0  0  0  0  0  0  0  0  0  0  0
    3.1224   -3.0663    3.1078 N   0  0  0  0  0  0  0  0  0  0  0  0
    2.1715   -2.2233    3.5475 C   0  0  0  0  0  0  0  0  0  0  0  0
    2.0995   -0.9335    3.0025 C   0  0  0  0  0  0  0  0  0  0  0  0
    1.2996    0.1897    3.1705 N   0  0  0  0  0  0  0  0  0  0  0  0
    1.7679    1.1004    2.2929 C   0  0  0  0  0  0  0  0  0  0  0  0
    2.8171    0.7298    1.5692 N   0  0  0  0  0  0  0  0  0  0  0  0
    3.0411   -0.5664    1.9977 C   0  0  0  0  0  0  0  0  0  0  0  0
    4.5549   -1.7621   -0.8929 C   0  0  1  0  0  0  0  0  0  0  0  0
    5.2335   -0.9890   -2.0626 C   0  0  0  0  0  0  0  0  0  0  0  0
    4.8018   -1.5851   -3.4290 C   0  0  2  0  0  0  0  0  0  0  0  0
    3.3086   -1.4275   -3.6162 C   0  0  0  0  0  0  0  0  0  0  0  0
    2.6309   -2.2375   -2.5165 C   0  0  1  0  0  0  0  0  0  0  0  0
    3.0505   -3.6902   -2.5942 C   0  0  0  0  0  0  0  0  0  0  0  0
    4.5693   -3.8215   -2.3690 C   0  0  1  0  0  0  0  0  0  0  0  0
    5.2730   -3.0493   -3.4754 C   0  0  0  0  0  0  0  0  0  0  0  0
    4.9674   -3.2606   -0.9938 C   0  0  0  0  0  0  0  0  0  0  0  0
    3.0215   -1.7064   -1.1224 C   0  0  0  0  0  0  0  0  0  0  0  0
    7.1127   -0.9092    0.2503 H   0  0  0  0  0  0  0  0  0  0  0  0
    6.6346   -2.4041    1.0275 H   0  0  0  0  0  0  0  0  0  0  0  0
    6.6005   -0.9041    1.9343 H   0  0  0  0  0  0  0  0  0  0  0  0
    4.8767   -0.0021    0.3690 H   0  0  0  0  0  0  0  0  0  0  0  0
    4.7501   -3.3649    1.8256 H   0  0  0  0  0  0  0  0  0  0  0  0
    1.5064   -2.5605    4.3392 H   0  0  0  0  0  0  0  0  0  0  0  0
    1.3495    2.0855    2.1792 H   0  0  0  0  0  0  0  0  0  0  0  0
    4.9945    0.0719   -2.0286 H   0  0  0  0  0  0  0  0  0  0  0  0
    6.3074   -1.0526   -1.9366 H   0  0  0  0  0  0  0  0  0  0  0  0
    5.1327   -1.0547   -4.3100 H   0  0  0  0  0  0  0  0  0  0  0  0
    3.0569   -0.3650   -3.5603 H   0  0  0  0  0  0  0  0  0  0  0  0
    3.0446   -1.7719   -4.6156 H   0  0  0  0  0  0  0  0  0  0  0  0
    1.5606   -2.2069   -2.6817 H   0  0  0  0  0  0  0  0  0  0  0  0
    2.5002   -4.1960   -1.8038 H   0  0  0  0  0  0  0  0  0  0  0  0
    2.7464   -4.0837   -3.5672 H   0  0  0  0  0  0  0  0  0  0  0  0
    4.8749   -4.8619   -2.4143 H   0  0  0  0  0  0  0  0  0  0  0  0
    5.0081   -3.5048   -4.4268 H   0  0  0  0  0  0  0  0  0  0  0  0
    6.3534   -3.1148   -3.3355 H   0  0  0  0  0  0  0  0  0  0  0  0
    6.0469   -3.4032   -0.8702 H   0  0  0  0  0  0  0  0  0  0  0  0
    4.4376   -3.8663   -0.2538 H   0  0  0  0  0  0  0  0  0  0  0  0
    2.5123   -2.3419   -0.3815 H   0  0  0  0  0  0  0  0  0  0  0  0
    2.7000   -0.6700   -1.0523 H   0  0  0  0  0  0  0  0  0  0  0  0
    0.5326    0.3552    3.8138 H   0  0  0  0  0  0  0  0  0  0  0  0
  1  2  1  0
  1 22  1  0
  1 23  1  0
  1 24  1  0
  2  3  1  0
  2 12  1  0
  2 25  1  6
  3 11  2  0
  3  4  1  0
  4  5  2  0
  4 26  1  0
  5  6  1  0
  6  7  2  0
  6 27  1  0
  7 11  1  0
  7  8  1  0
  8  9  1  0
  8 44  1  0
  9 10  2  0
  9 28  1  0
 10 11  1  0
 12 20  1  1
 12 21  1  0
 12 13  1  0
 13 14  1  0
 13 29  1  0
 13 30  1  0
 14 19  1  0
 14 15  1  0
 14 31  1  6
 15 16  1  0
 15 32  1  0
 15 33  1  0
 16 17  1  0
 16 21  1  0
 16 34  1  6
 17 18  1  0
 17 35  1  0
 17 36  1  0
 18 19  1  0
 18 20  1  0
 18 37  1  1
 19 38  1  0
 19 39  1  0
 20 40  1  0
 20 41  1  0
 21 42  1  0
 21 43  1  0
M  CHG  1   3   1
M  END
>  <i_m_ct_stereo_status>  (300) 
1

>  <s_m_source_file>  (300) 
/var/tmp/pbs.5076255.sched01/tmpgyl_4d9e/126kfdajayx.sdf

>  <i_m_source_file_index>  (300) 
30

>  <i_lp_mmshare_version>  (300) 
48012

>  <i_f3d_flags>  (300) 
0

>  <s_epik_input>  (300) 
bjFbY0hdbmMoYzEyKW4oW2NIXW5bY0hdMilbQ0BASF0oW0NIM10pQzM0W0NIMl1bQ0BIXTVbQ0gyXVtDQEBIXShbQ0gyXTQpW0NIMl1bQ0BIXShbQ0gyXTUpW0NIMl0z

>  <s_epik_cmdline>  (300) 
J2VwaWtfcHl0aG9uJywgJy1waHQnLCAnMi4wJywgJy1waCcsICc3LjAnLCAnLXRuJywgJzgnLCAnLW1hJywgJzIwMCcsICctaW1hZScsICc8aW5maWxlLm1hZT4nLCAnLW9tYWUnLCAnPG91dGZpbGUubWFlPic=

>  <r_lp_tautomer_probability>  (300) 
0.995019

>  <r_epik_Ionization_Penalty>  (300) 
3.11711

>  <r_epik_Ionization_Penalty_Charging>  (300) 
1.59045e-11

>  <r_epik_Ionization_Penalty_Neutral>  (300) 
3.11711

>  <r_epik_State_Penalty>  (300) 
2.03643

>  <r_epik_Charging_Adjusted_Penalty>  (300) 
2.03643

>  <i_epik_Tot_Q>  (300) 
1

>  <i_epik_Tot_abs_Q>  (300) 
1

>  <s_lp_Force_Field>  (300) 
OPLS3e

>  <r_lp_Energy>  (300) 
25.0756

>  <b_lp_Chiralities_Consistent>  (300) 
1

>  <s_lp_Variant>  (300) 
104:0-2

>  <s_i_glide_gridfile>  (300) 
pfpi4k_grid

>  <i_i_glide_lignum>  (300) 
30

>  <i_i_glide_rotatable_bonds>  (300) 
2

>  <r_i_docking_score>  (300) 
-2.82953

>  <r_i_glide_ligand_efficiency>  (300) 
-0.134739

>  <r_i_glide_ligand_efficiency_sa>  (300) 
-0.371736

>  <r_i_glide_ligand_efficiency_ln>  (300) 
-0.699595

>  <r_i_glide_gscore>  (300) 
-2.82953

>  <r_i_glide_lipo>  (300) 
-0.645024

>  <r_i_glide_hbond>  (300) 
0

>  <r_i_glide_metal>  (300) 
-0

>  <r_i_glide_rewards>  (300) 
-1.47716

>  <r_i_glide_evdw>  (300) 
-12.4663

>  <r_i_glide_ecoul>  (300) 
-3.17344

>  <r_i_glide_erotb>  (300) 
0.45099

>  <r_i_glide_esite>  (300) 
-0.0590065

>  <r_i_glide_emodel>  (300) 
-19.254

>  <r_i_glide_energy>  (300) 
-15.6397

>  <r_i_glide_einternal>  (300) 
0.902182

>  <r_i_glide_intrahb_reward>  (300) 
-0

>  <i_i_glide_confnum>  (300) 
2

>  <i_i_glide_posenum>  (300) 
6

>  <r_i_glide_eff_state_penalty>  (300) 
0

>  <ligand_id>  (300) 
104

>  <original_smiles>  (300) 
CC(n1cncc2ncnc1-2)C12CC3CC(CC(C3)C1)C2

>  <smiles>  (300) 
[H]c1nc([H])[n+](C([H])(C([H])([H])[H])C23C([H])([H])C4([H])C([H])([H])C([H])(C([H])([H])C([H])(C4([H])[H])C2([H])[H])C3([H])[H])c2nc([H])n([H])c12

$$$$
104:1:2
     RDKit          3D

 44 48  0  0  1  0  0  0  0  0999 V2000
    4.1197   -4.8173    1.0307 C   0  0  0  0  0  0  0  0  0  0  0  0
    4.7493   -3.4917    0.5395 C   0  0  2  0  0  0  0  0  0  0  0  0
    4.6550   -2.4136    1.5774 N   0  0  0  0  0  0  0  0  0  0  0  0
    5.7504   -1.6977    1.8636 C   0  0  0  0  0  0  0  0  0  0  0  0
    5.7863   -0.6894    2.7467 N   0  0  0  0  0  0  0  0  0  0  0  0
    4.6713   -0.3212    3.4069 C   0  0  0  0  0  0  0  0  0  0  0  0
    3.4835   -0.9995    3.1515 C   0  0  0  0  0  0  0  0  0  0  0  0
    2.1627   -0.9116    3.5814 N   0  0  0  0  0  0  0  0  0  0  0  0
    1.5141   -1.8751    2.9247 C   0  0  0  0  0  0  0  0  0  0  0  0
    2.2593   -2.6596    2.1467 N   0  0  0  0  0  0  0  0  0  0  0  0
    3.5127   -2.0796    2.2264 C   0  0  0  0  0  0  0  0  0  0  0  0
    4.2938   -3.0026   -0.8825 C   0  0  1  0  0  0  0  0  0  0  0  0
    4.7091   -4.0339   -1.9515 C   0  0  0  0  0  0  0  0  0  0  0  0
    4.1989   -3.6166   -3.3654 C   0  0  2  0  0  0  0  0  0  0  0  0
    4.8687   -2.2852   -3.6809 C   0  0  0  0  0  0  0  0  0  0  0  0
    4.4885   -1.2000   -2.6723 C   0  0  1  0  0  0  0  0  0  0  0  0
    2.9630   -1.0327   -2.7242 C   0  0  0  0  0  0  0  0  0  0  0  0
    2.3293   -2.3924   -2.3954 C   0  0  1  0  0  0  0  0  0  0  0  0
    2.6846   -3.4113   -3.4448 C   0  0  0  0  0  0  0  0  0  0  0  0
    2.7657   -2.8450   -1.0029 C   0  0  0  0  0  0  0  0  0  0  0  0
    4.9444   -1.6417   -1.2736 C   0  0  0  0  0  0  0  0  0  0  0  0
    4.3818   -5.6586    0.3921 H   0  0  0  0  0  0  0  0  0  0  0  0
    3.0348   -4.7982    1.0533 H   0  0  0  0  0  0  0  0  0  0  0  0
    4.4596   -5.0493    2.0369 H   0  0  0  0  0  0  0  0  0  0  0  0
    5.8195   -3.7071    0.4427 H   0  0  0  0  0  0  0  0  0  0  0  0
    6.6600   -1.9500    1.3374 H   0  0  0  0  0  0  0  0  0  0  0  0
    4.7444    0.4761    4.1379 H   0  0  0  0  0  0  0  0  0  0  0  0
    0.4539   -2.0462    3.0028 H   0  0  0  0  0  0  0  0  0  0  0  0
    5.7939   -4.1776   -1.9659 H   0  0  0  0  0  0  0  0  0  0  0  0
    4.3135   -4.9821   -1.6268 H   0  0  0  0  0  0  0  0  0  0  0  0
    4.5138   -4.3597   -4.1012 H   0  0  0  0  0  0  0  0  0  0  0  0
    5.9167   -2.5021   -3.5443 H   0  0  0  0  0  0  0  0  0  0  0  0
    4.5999   -1.9377   -4.6740 H   0  0  0  0  0  0  0  0  0  0  0  0
    4.9584   -0.2507   -2.9103 H   0  0  0  0  0  0  0  0  0  0  0  0
    2.6298   -0.2978   -2.0074 H   0  0  0  0  0  0  0  0  0  0  0  0
    2.6280   -0.6787   -3.7062 H   0  0  0  0  0  0  0  0  0  0  0  0
    1.2638   -2.3275   -2.3836 H   0  0  0  0  0  0  0  0  0  0  0  0
    2.3600   -3.0861   -4.4268 H   0  0  0  0  0  0  0  0  0  0  0  0
    2.0901   -4.2510   -3.1879 H   0  0  0  0  0  0  0  0  0  0  0  0
    2.2131   -3.7386   -0.7395 H   0  0  0  0  0  0  0  0  0  0  0  0
    2.4897   -2.0491   -0.3298 H   0  0  0  0  0  0  0  0  0  0  0  0
    4.6634   -0.8406   -0.5848 H   0  0  0  0  0  0  0  0  0  0  0  0
    6.0275   -1.7326   -1.2465 H   0  0  0  0  0  0  0  0  0  0  0  0
    1.7451   -0.2766    4.2527 H   0  0  0  0  0  0  0  0  0  0  0  0
  1  2  1  0
  1 22  1  0
  1 23  1  0
  1 24  1  0
  2  3  1  0
  2 12  1  0
  2 25  1  6
  3 11  2  0
  3  4  1  0
  4  5  2  0
  4 26  1  0
  5  6  1  0
  6  7  2  0
  6 27  1  0
  7 11  1  0
  7  8  1  0
  8  9  1  0
  8 44  1  0
  9 10  2  0
  9 28  1  0
 10 11  1  0
 12 20  1  1
 12 21  1  0
 12 13  1  0
 13 14  1  0
 13 29  1  0
 13 30  1  0
 14 19  1  0
 14 15  1  0
 14 31  1  6
 15 16  1  0
 15 32  1  0
 15 33  1  0
 16 17  1  0
 16 21  1  0
 16 34  1  6
 17 18  1  0
 17 35  1  0
 17 36  1  0
 18 19  1  0
 18 20  1  0
 18 37  1  1
 19 38  1  0
 19 39  1  0
 20 40  1  0
 20 41  1  0
 21 42  1  0
 21 43  1  0
M  CHG  1   3   1
M  END
>  <i_m_ct_stereo_status>  (301) 
1

>  <s_m_source_file>  (301) 
/var/tmp/pbs.5076255.sched01/tmpgyl_4d9e/126kfdajayx.sdf

>  <i_m_source_file_index>  (301) 
30

>  <i_lp_mmshare_version>  (301) 
48012

>  <i_f3d_flags>  (301) 
0

>  <s_epik_input>  (301) 
bjFbY0hdbmMoYzEyKW4oW2NIXW5bY0hdMilbQ0BASF0oW0NIM10pQzM0W0NIMl1bQ0BIXTVbQ0gyXVtDQEBIXShbQ0gyXTQpW0NIMl1bQ0BIXShbQ0gyXTUpW0NIMl0z

>  <s_epik_cmdline>  (301) 
J2VwaWtfcHl0aG9uJywgJy1waHQnLCAnMi4wJywgJy1waCcsICc3LjAnLCAnLXRuJywgJzgnLCAnLW1hJywgJzIwMCcsICctaW1hZScsICc8aW5maWxlLm1hZT4nLCAnLW9tYWUnLCAnPG91dGZpbGUubWFlPic=

>  <r_lp_tautomer_probability>  (301) 
0.995019

>  <r_epik_Ionization_Penalty>  (301) 
3.11711

>  <r_epik_Ionization_Penalty_Charging>  (301) 
1.59045e-11

>  <r_epik_Ionization_Penalty_Neutral>  (301) 
3.11711

>  <r_epik_State_Penalty>  (301) 
2.03643

>  <r_epik_Charging_Adjusted_Penalty>  (301) 
2.03643

>  <i_epik_Tot_Q>  (301) 
1

>  <i_epik_Tot_abs_Q>  (301) 
1

>  <s_lp_Force_Field>  (301) 
OPLS3e

>  <r_lp_Energy>  (301) 
25.0756

>  <b_lp_Chiralities_Consistent>  (301) 
1

>  <s_lp_Variant>  (301) 
104:0-2

>  <s_i_glide_gridfile>  (301) 
pfpi4k_grid

>  <i_i_glide_lignum>  (301) 
30

>  <i_i_glide_rotatable_bonds>  (301) 
2

>  <r_i_docking_score>  (301) 
-2.68531

>  <r_i_glide_ligand_efficiency>  (301) 
-0.127872

>  <r_i_glide_ligand_efficiency_sa>  (301) 
-0.352788

>  <r_i_glide_ligand_efficiency_ln>  (301) 
-0.663936

>  <r_i_glide_gscore>  (301) 
-2.68531

>  <r_i_glide_lipo>  (301) 
-0.373263

>  <r_i_glide_hbond>  (301) 
0

>  <r_i_glide_metal>  (301) 
-0

>  <r_i_glide_rewards>  (301) 
-1.67674

>  <r_i_glide_evdw>  (301) 
-11.9102

>  <r_i_glide_ecoul>  (301) 
-3.20204

>  <r_i_glide_erotb>  (301) 
0.45099

>  <r_i_glide_esite>  (301) 
-0.0104795

>  <r_i_glide_emodel>  (301) 
-18.1227

>  <r_i_glide_energy>  (301) 
-15.1123

>  <r_i_glide_einternal>  (301) 
1.4332

>  <r_i_glide_intrahb_reward>  (301) 
-0

>  <i_i_glide_confnum>  (301) 
6

>  <i_i_glide_posenum>  (301) 
2

>  <r_i_glide_eff_state_penalty>  (301) 
0

>  <ligand_id>  (301) 
104

>  <original_smiles>  (301) 
CC(n1cncc2ncnc1-2)C12CC3CC(CC(C3)C1)C2

>  <smiles>  (301) 
[H]c1nc([H])[n+](C([H])(C([H])([H])[H])C23C([H])([H])C4([H])C([H])([H])C([H])(C([H])([H])C([H])(C4([H])[H])C2([H])[H])C3([H])[H])c2nc([H])n([H])c12

$$$$
106:0:0
     RDKit          3D

 85 91  0  0  1  0  0  0  0  0999 V2000
   -0.4789    0.9125    8.4733 C   0  0  0  0  0  0  0  0  0  0  0  0
   -0.9922    0.5869    7.1854 O   0  0  0  0  0  0  0  0  0  0  0  0
   -0.3835    1.1759    6.0177 C   0  0  2  0  0  0  0  0  0  0  0  0
   -0.4820    2.7014    6.0288 C   0  0  0  0  0  0  0  0  0  0  0  0
    0.4432    3.4063    6.6746 C   0  0  0  0  0  0  0  0  0  0  0  0
    1.7825    3.2959    6.0099 C   0  0  2  0  0  0  0  0  0  0  0  0
    1.5671    4.0086    4.6371 C   0  0  1  0  0  0  0  0  0  0  0  0
    2.8057    4.2986    3.7641 C   0  0  0  0  0  0  0  0  0  0  0  0
    0.5348    3.3487    3.9024 O   0  0  0  0  0  0  0  0  0  0  0  0
   -0.7185    3.1244    4.5691 C   0  0  2  0  0  0  0  0  0  0  0  0
   -1.5920    4.3765    4.4346 C   0  0  0  0  0  0  0  0  0  0  0  0
   -1.3407    1.9155    3.8547 C   0  0  0  0  0  0  0  0  0  0  0  0
   -1.4877    0.8746    4.9646 C   0  0  1  0  0  0  0  0  0  0  0  0
   -1.6644   -0.4368    4.4794 O   0  0  0  0  0  0  0  0  0  0  0  0
    2.2514    1.7927    6.0942 C   0  0  2  0  0  0  0  0  0  0  0  0
    2.5574    1.6808    7.4788 O   0  0  0  0  0  0  0  0  0  0  0  0
    3.6135    1.5543    5.4098 C   0  0  0  0  0  0  0  0  0  0  0  0
    4.4515    2.4392    5.4424 O   0  0  0  0  0  0  0  0  0  0  0  0
    3.9382    0.1477    4.8337 C   0  0  2  0  0  0  0  0  0  0  0  0
    4.0946   -0.8340    6.0317 C   0  0  0  0  0  0  0  0  0  0  0  0
    5.2885    0.1695    4.0427 C   0  0  1  0  0  0  0  0  0  0  0  0
    6.4123    0.4725    4.8490 O   0  0  0  0  0  0  0  0  0  0  0  0
    5.6199   -1.1824    3.3949 C   0  0  0  0  0  0  0  0  0  0  0  0
    4.5571   -1.7965    2.4823 C   0  0  1  0  0  0  0  0  0  0  0  0
    3.1318   -1.6383    3.1151 C   0  0  2  0  0  0  0  0  0  0  0  0
    2.0612   -2.1128    2.1493 C   0  0  0  0  0  0  0  0  0  0  0  0
    2.3146   -2.5911    0.9270 C   0  0  0  0  0  0  0  0  0  0  0  0
    3.6181   -2.6236    0.3317 C   0  0  0  0  0  0  0  0  0  0  0  0
    3.7754   -3.4561   -0.7097 C   0  0  0  0  0  0  0  0  0  0  0  0
    5.0652   -3.7055   -1.4512 C   0  0  1  0  0  0  0  0  0  0  0  0
    4.8485   -3.7589   -2.8479 O   0  0  0  0  0  0  0  0  0  0  0  0
    6.1122   -2.6407   -1.1181 C   0  0  0  0  0  0  0  0  0  0  0  0
    6.1007   -2.2699    0.3847 C   0  0  1  0  0  0  0  0  0  0  0  0
    7.1318   -1.3165    0.4950 O   0  0  0  0  0  0  0  0  0  0  0  0
    4.7187   -1.7304    0.9087 C   0  0  2  0  0  0  0  0  0  0  0  0
    4.4921   -0.3052    0.3812 C   0  0  0  0  0  0  0  0  0  0  0  0
    2.7759   -0.2688    3.8532 C   0  0  2  0  0  0  0  0  0  0  0  0
    2.5181    0.8192    2.7630 C   0  0  0  0  0  0  0  0  0  0  0  0
    1.3917   -0.3366    4.6198 C   0  0  1  0  0  0  0  0  0  0  0  0
    1.1421   -1.6414    5.1261 O   0  0  0  0  0  0  0  0  0  0  0  0
    1.1306    0.6968    5.7922 C   0  0  2  0  0  0  0  0  0  0  0  0
   -0.9878    0.3147    9.2227 H   0  0  0  0  0  0  0  0  0  0  0  0
   -0.6333    1.9599    8.7253 H   0  0  0  0  0  0  0  0  0  0  0  0
    0.5679    0.6562    8.5967 H   0  0  0  0  0  0  0  0  0  0  0  0
    0.2332    4.4652    6.7343 H   0  0  0  0  0  0  0  0  0  0  0  0
    2.4740    3.9161    6.5816 H   0  0  0  0  0  0  0  0  0  0  0  0
    1.1915    5.0093    4.8538 H   0  0  0  0  0  0  0  0  0  0  0  0
    2.5495    4.9682    2.9411 H   0  0  0  0  0  0  0  0  0  0  0  0
    3.2474    3.4139    3.3144 H   0  0  0  0  0  0  0  0  0  0  0  0
    3.5859    4.7873    4.3481 H   0  0  0  0  0  0  0  0  0  0  0  0
   -2.5637    4.2190    4.8889 H   0  0  0  0  0  0  0  0  0  0  0  0
   -1.7454    4.6232    3.3823 H   0  0  0  0  0  0  0  0  0  0  0  0
   -1.1239    5.2392    4.9060 H   0  0  0  0  0  0  0  0  0  0  0  0
   -2.3110    2.1414    3.4069 H   0  0  0  0  0  0  0  0  0  0  0  0
   -0.6972    1.5563    3.0518 H   0  0  0  0  0  0  0  0  0  0  0  0
   -2.4359    1.1033    5.4517 H   0  0  0  0  0  0  0  0  0  0  0  0
   -2.4217   -0.3995    3.9125 H   0  0  0  0  0  0  0  0  0  0  0  0
    1.7800    1.8936    7.9807 H   0  0  0  0  0  0  0  0  0  0  0  0
    4.2855   -1.8580    5.7291 H   0  0  0  0  0  0  0  0  0  0  0  0
    3.2239   -0.8704    6.6757 H   0  0  0  0  0  0  0  0  0  0  0  0
    4.9186   -0.5330    6.6762 H   0  0  0  0  0  0  0  0  0  0  0  0
    5.2583    0.9394    3.2837 H   0  0  0  0  0  0  0  0  0  0  0  0
    7.1763    0.5537    4.2913 H   0  0  0  0  0  0  0  0  0  0  0  0
    6.5598   -1.0855    2.8731 H   0  0  0  0  0  0  0  0  0  0  0  0
    5.7756   -1.9088    4.1832 H   0  0  0  0  0  0  0  0  0  0  0  0
    4.7421   -2.8652    2.6256 H   0  0  0  0  0  0  0  0  0  0  0  0
    3.1147   -2.4027    3.8902 H   0  0  0  0  0  0  0  0  0  0  0  0
    1.0445   -2.0942    2.5179 H   0  0  0  0  0  0  0  0  0  0  0  0
    1.5015   -2.8653    0.2863 H   0  0  0  0  0  0  0  0  0  0  0  0
    2.9437   -4.0519   -1.0694 H   0  0  0  0  0  0  0  0  0  0  0  0
    5.4235   -4.6830   -1.1244 H   0  0  0  0  0  0  0  0  0  0  0  0
    4.2776   -4.4999   -3.0168 H   0  0  0  0  0  0  0  0  0  0  0  0
    7.0966   -3.0089   -1.4090 H   0  0  0  0  0  0  0  0  0  0  0  0
    5.9300   -1.7561   -1.7256 H   0  0  0  0  0  0  0  0  0  0  0  0
    6.3697   -3.1583    0.9556 H   0  0  0  0  0  0  0  0  0  0  0  0
    7.1006   -0.9355    1.3619 H   0  0  0  0  0  0  0  0  0  0  0  0
    5.0905    0.4291    0.9129 H   0  0  0  0  0  0  0  0  0  0  0  0
    3.4478   -0.0153    0.4610 H   0  0  0  0  0  0  0  0  0  0  0  0
    4.7392   -0.2322   -0.6747 H   0  0  0  0  0  0  0  0  0  0  0  0
    1.8709    0.4657    1.9557 H   0  0  0  0  0  0  0  0  0  0  0  0
    3.4144    1.2347    2.3095 H   0  0  0  0  0  0  0  0  0  0  0  0
    1.9777    1.6613    3.1762 H   0  0  0  0  0  0  0  0  0  0  0  0
    0.6448   -0.1860    3.8471 H   0  0  0  0  0  0  0  0  0  0  0  0
    1.8296   -1.8717    5.7405 H   0  0  0  0  0  0  0  0  0  0  0  0
    1.2559    0.0283    6.6384 H   0  0  0  0  0  0  0  0  0  0  0  0
  1  2  1  0
  1 42  1  0
  1 43  1  0
  1 44  1  0
  3  2  1  1
  3 13  1  0
  3 41  1  0
  3  4  1  0
  4 10  1  0
  4  5  2  0
  5  6  1  0
  5 45  1  0
  6  7  1  0
  6 15  1  0
  6 46  1  1
  7  8  1  0
  7  9  1  0
  7 47  1  1
  8 48  1  0
  8 49  1  0
  8 50  1  0
  9 10  1  0
 10 11  1  1
 10 12  1  0
 11 51  1  0
 11 52  1  0
 11 53  1  0
 12 13  1  0
 12 54  1  0
 12 55  1  0
 13 14  1  0
 13 56  1  1
 14 57  1  0
 15 41  1  0
 15 16  1  1
 15 17  1  0
 16 58  1  0
 17 18  2  0
 17 19  1  0
 19 37  1  0
 19 20  1  1
 19 21  1  0
 20 59  1  0
 20 60  1  0
 20 61  1  0
 21 22  1  0
 21 23  1  0
 21 62  1  6
 22 63  1  0
 23 24  1  0
 23 64  1  0
 23 65  1  0
 24 35  1  0
 24 25  1  0
 24 66  1  1
 25 26  1  0
 25 37  1  0
 25 67  1  1
 26 27  2  0
 26 68  1  0
 27 28  1  0
 27 69  1  0
 28 35  1  0
 28 29  2  0
 29 30  1  0
 29 70  1  0
 30 31  1  0
 30 32  1  0
 30 71  1  1
 31 72  1  0
 32 33  1  0
 32 73  1  0
 32 74  1  0
 33 34  1  0
 33 35  1  0
 33 75  1  1
 34 76  1  0
 35 36  1  6
 36 77  1  0
 36 78  1  0
 36 79  1  0
 37 38  1  6
 37 39  1  0
 38 80  1  0
 38 81  1  0
 38 82  1  0
 39 40  1  0
 39 41  1  0
 39 83  1  6
 40 84  1  0
 41 85  1  1
M  END
>  <i_m_ct_stereo_status>  (302) 
1

>  <s_m_source_file>  (302) 
/var/tmp/pbs.5076255.sched01/tmpgyl_4d9e/126kfdajayx.sdf

>  <i_m_source_file_index>  (302) 
32

>  <i_lp_mmshare_version>  (302) 
48012

>  <i_f3d_flags>  (302) 
1

>  <s_epik_input>  (302) 
W0NIM11PW0NAXTEyQz0zW0NAXShbQ0gzXSkoW0NIMl1bQ0BIXTFbT0hdKU9bQ0BIXShbQ0gzXSlbQ0BASF0oW0NIXTMpW0NAQF00KFtPSF0pW0NAQEhdMltDQEhdKFtPSF0pW0NAQF01KFtDSDNdKVtDQEBdKEM0PU8pKFtDSDNdKVtDQEBIXShbT0hdKVtDSDJdW0NASF02W0NAQEhdNVtDSF09W0NIXUM9N1tDQF02KFtDSDNdKVtDQEhdKFtPSF0pW0NIMl1bQ0BASF0oW0NIXTcpW09IXQ==

>  <s_epik_cmdline>  (302) 
J2VwaWtfcHl0aG9uJywgJy1waHQnLCAnMi4wJywgJy1waCcsICc3LjAnLCAnLXRuJywgJzgnLCAnLW1hJywgJzIwMCcsICctaW1hZScsICc8aW5maWxlLm1hZT4nLCAnLW9tYWUnLCAnPG91dGZpbGUubWFlPic=

>  <r_lp_tautomer_probability>  (302) 
1

>  <r_epik_Ionization_Penalty>  (302) 
9.43174e-07

>  <r_epik_Ionization_Penalty_Charging>  (302) 
0

>  <r_epik_Ionization_Penalty_Neutral>  (302) 
9.43174e-07

>  <r_epik_State_Penalty>  (302) 
-0

>  <r_epik_Charging_Adjusted_Penalty>  (302) 
0

>  <i_epik_Tot_Q>  (302) 
0

>  <i_epik_Tot_abs_Q>  (302) 
0

>  <s_lp_Force_Field>  (302) 
OPLS3e

>  <r_lp_Energy>  (302) 
145.589

>  <b_lp_Chiralities_Consistent>  (302) 
1

>  <s_lp_Variant>  (302) 
106:0-1

>  <s_i_glide_gridfile>  (302) 
pfpi4k_grid

>  <i_i_glide_lignum>  (302) 
32

>  <i_i_glide_rotatable_bonds>  (302) 
7

>  <r_i_docking_score>  (302) 
-3.31363

>  <r_i_glide_ligand_efficiency>  (302) 
-0.0808204

>  <r_i_glide_ligand_efficiency_sa>  (302) 
-0.278686

>  <r_i_glide_ligand_efficiency_ln>  (302) 
-0.702999

>  <r_i_glide_gscore>  (302) 
-3.31363

>  <r_i_glide_lipo>  (302) 
-0.48838

>  <r_i_glide_hbond>  (302) 
-0.386387

>  <r_i_glide_metal>  (302) 
-0

>  <r_i_glide_rewards>  (302) 
0

>  <r_i_glide_evdw>  (302) 
-26.0844

>  <r_i_glide_ecoul>  (302) 
-7.56432

>  <r_i_glide_erotb>  (302) 
0

>  <r_i_glide_esite>  (302) 
0

>  <r_i_glide_emodel>  (302) 
-41.0964

>  <r_i_glide_energy>  (302) 
-33.6487

>  <r_i_glide_einternal>  (302) 
1.6974

>  <r_i_glide_intrahb_reward>  (302) 
-0

>  <i_i_glide_confnum>  (302) 
1

>  <i_i_glide_posenum>  (302) 
11

>  <r_i_glide_eff_state_penalty>  (302) 
0

>  <ligand_id>  (302) 
106

>  <original_smiles>  (302) 
COC12C3=CC(C(C)OC3(C)CC1O)C1(O)C(=O)C3(C)C(O)CC4C(C=CC5=CC(O)CC(O)C54C)C3(C)C(O)C12

>  <smiles>  (302) 
[H]OC1([H])C([H])=C2C([H])=C([H])C3([H])C([H])(C([H])([H])C([H])(O[H])C4(C([H])([H])[H])C(=O)C5(O[H])C6([H])C([H])=C7C(C([H])([H])[H])(OC6([H])C([H])([H])[H])C([H])([H])C([H])(O[H])C7(OC([H])([H])[H])C5([H])C([H])(O[H])C34C([H])([H])[H])C2(C([H])([H])[H])C([H])(O[H])C1([H])[H]

$$$$
106:0:1
     RDKit          3D

 85 91  0  0  1  0  0  0  0  0999 V2000
   -0.4997    0.5934    8.5190 C   0  0  0  0  0  0  0  0  0  0  0  0
   -0.9753    0.2410    7.2254 O   0  0  0  0  0  0  0  0  0  0  0  0
   -0.4000    0.8675    6.0602 C   0  0  2  0  0  0  0  0  0  0  0  0
   -0.5684    2.3840    6.1092 C   0  0  0  0  0  0  0  0  0  0  0  0
    0.3352    3.1177    6.7609 C   0  0  0  0  0  0  0  0  0  0  0  0
    1.6726    3.0826    6.0851 C   0  0  2  0  0  0  0  0  0  0  0  0
    1.4127    3.8083    4.7266 C   0  0  1  0  0  0  0  0  0  0  0  0
    2.6269    4.1690    3.8496 C   0  0  0  0  0  0  0  0  0  0  0  0
    0.4033    3.1150    3.9897 O   0  0  0  0  0  0  0  0  0  0  0  0
   -0.8354    2.8186    4.6593 C   0  0  2  0  0  0  0  0  0  0  0  0
   -1.7732    4.0376    4.5561 C   0  0  0  0  0  0  0  0  0  0  0  0
   -1.4004    1.5930    3.9295 C   0  0  0  0  0  0  0  0  0  0  0  0
   -1.4861    0.5240    5.0101 C   0  0  1  0  0  0  0  0  0  0  0  0
   -1.5880   -0.8047    4.5281 O   0  0  0  0  0  0  0  0  0  0  0  0
    2.2082    1.6006    6.1347 C   0  0  2  0  0  0  0  0  0  0  0  0
    2.5329    1.4731    7.5147 O   0  0  0  0  0  0  0  0  0  0  0  0
    3.5690    1.4308    5.4410 C   0  0  0  0  0  0  0  0  0  0  0  0
    4.3753    2.3630    5.4763 O   0  0  0  0  0  0  0  0  0  0  0  0
    3.9573    0.0569    4.8308 C   0  0  2  0  0  0  0  0  0  0  0  0
    4.1706   -0.9377    6.0117 C   0  0  0  0  0  0  0  0  0  0  0  0
    5.2936    0.1627    4.0292 C   0  0  1  0  0  0  0  0  0  0  0  0
    6.4185    0.5140    4.8203 O   0  0  0  0  0  0  0  0  0  0  0  0
    5.6705   -1.1572    3.3504 C   0  0  0  0  0  0  0  0  0  0  0  0
    4.6417   -1.8096    2.4361 C   0  0  1  0  0  0  0  0  0  0  0  0
    3.2159   -1.7274    3.0815 C   0  0  2  0  0  0  0  0  0  0  0  0
    2.1662   -2.2262    2.1235 C   0  0  0  0  0  0  0  0  0  0  0  0
    2.4283   -2.6657    0.8723 C   0  0  0  0  0  0  0  0  0  0  0  0
    3.7267   -2.6326    0.2840 C   0  0  0  0  0  0  0  0  0  0  0  0
    3.9126   -3.4539   -0.7792 C   0  0  0  0  0  0  0  0  0  0  0  0
    5.2048   -3.6223   -1.5281 C   0  0  1  0  0  0  0  0  0  0  0  0
    4.9700   -3.6546   -2.9246 O   0  0  0  0  0  0  0  0  0  0  0  0
    6.2018   -2.5211   -1.1849 C   0  0  0  0  0  0  0  0  0  0  0  0
    6.1882   -2.1766    0.3211 C   0  0  1  0  0  0  0  0  0  0  0  0
    7.1788   -1.1819    0.4507 O   0  0  0  0  0  0  0  0  0  0  0  0
    4.7892   -1.7076    0.8637 C   0  0  2  0  0  0  0  0  0  0  0  0
    4.4911   -0.2846    0.3628 C   0  0  0  0  0  0  0  0  0  0  0  0
    2.8094   -0.3917    3.8529 C   0  0  2  0  0  0  0  0  0  0  0  0
    2.4958    0.7013    2.7853 C   0  0  0  0  0  0  0  0  0  0  0  0
    1.4407   -0.5247    4.6266 C   0  0  1  0  0  0  0  0  0  0  0  0
    1.2215   -1.8505    5.0960 O   0  0  0  0  0  0  0  0  0  0  0  0
    1.1327    0.4605    5.8254 C   0  0  2  0  0  0  0  0  0  0  0  0
   -0.9767   -0.0366    9.2648 H   0  0  0  0  0  0  0  0  0  0  0  0
   -0.7365    1.6259    8.7739 H   0  0  0  0  0  0  0  0  0  0  0  0
    0.5638    0.4150    8.6506 H   0  0  0  0  0  0  0  0  0  0  0  0
    0.0825    4.1642    6.8418 H   0  0  0  0  0  0  0  0  0  0  0  0
    2.3402    3.7184    6.6629 H   0  0  0  0  0  0  0  0  0  0  0  0
    0.9905    4.7857    4.9691 H   0  0  0  0  0  0  0  0  0  0  0  0
    2.3365    4.8429    3.0431 H   0  0  0  0  0  0  0  0  0  0  0  0
    3.1040    3.3163    3.3801 H   0  0  0  0  0  0  0  0  0  0  0  0
    3.3903    4.6829    4.4370 H   0  0  0  0  0  0  0  0  0  0  0  0
   -2.7416    3.8260    5.0177 H   0  0  0  0  0  0  0  0  0  0  0  0
   -1.9452    4.2986    3.5140 H   0  0  0  0  0  0  0  0  0  0  0  0
   -1.3549    4.9143    5.0446 H   0  0  0  0  0  0  0  0  0  0  0  0
   -2.3817    1.7844    3.4918 H   0  0  0  0  0  0  0  0  0  0  0  0
   -0.7461    1.2896    3.1079 H   0  0  0  0  0  0  0  0  0  0  0  0
   -2.4452    0.6930    5.5056 H   0  0  0  0  0  0  0  0  0  0  0  0
   -0.7804   -1.0354    4.0879 H   0  0  0  0  0  0  0  0  0  0  0  0
    1.7537    1.6507    8.0244 H   0  0  0  0  0  0  0  0  0  0  0  0
    4.4018   -1.9521    5.6905 H   0  0  0  0  0  0  0  0  0  0  0  0
    3.3046   -1.0280    6.6542 H   0  0  0  0  0  0  0  0  0  0  0  0
    4.9783   -0.6139    6.6618 H   0  0  0  0  0  0  0  0  0  0  0  0
    5.2234    0.9427    3.2806 H   0  0  0  0  0  0  0  0  0  0  0  0
    6.5090   -0.1042    5.5289 H   0  0  0  0  0  0  0  0  0  0  0  0
    6.6058   -1.0203    2.8406 H   0  0  0  0  0  0  0  0  0  0  0  0
    5.8197   -1.9152    4.1298 H   0  0  0  0  0  0  0  0  0  0  0  0
    4.8786   -2.8617    2.5490 H   0  0  0  0  0  0  0  0  0  0  0  0
    3.2427   -2.5129    3.8400 H   0  0  0  0  0  0  0  0  0  0  0  0
    1.1566   -2.2725    2.5004 H   0  0  0  0  0  0  0  0  0  0  0  0
    1.6446   -2.9884    0.2360 H   0  0  0  0  0  0  0  0  0  0  0  0
    3.1046   -4.0687   -1.1368 H   0  0  0  0  0  0  0  0  0  0  0  0
    5.6054   -4.5887   -1.2231 H   0  0  0  0  0  0  0  0  0  0  0  0
    4.4029   -4.3977   -3.1000 H   0  0  0  0  0  0  0  0  0  0  0  0
    7.1997   -2.8383   -1.4969 H   0  0  0  0  0  0  0  0  0  0  0  0
    5.9752   -1.6311   -1.7801 H   0  0  0  0  0  0  0  0  0  0  0  0
    6.4977   -3.0685    0.8694 H   0  0  0  0  0  0  0  0  0  0  0  0
    7.1902   -0.8660    1.3431 H   0  0  0  0  0  0  0  0  0  0  0  0
    5.0620    0.4654    0.9047 H   0  0  0  0  0  0  0  0  0  0  0  0
    3.4352   -0.0473    0.4610 H   0  0  0  0  0  0  0  0  0  0  0  0
    4.7199   -0.1857   -0.6941 H   0  0  0  0  0  0  0  0  0  0  0  0
    1.8596    0.3335    1.9765 H   0  0  0  0  0  0  0  0  0  0  0  0
    3.3699    1.1662    2.3307 H   0  0  0  0  0  0  0  0  0  0  0  0
    1.9185    1.5100    3.2183 H   0  0  0  0  0  0  0  0  0  0  0  0
    0.6916   -0.3813    3.8532 H   0  0  0  0  0  0  0  0  0  0  0  0
    1.9263   -2.0789    5.6944 H   0  0  0  0  0  0  0  0  0  0  0  0
    1.2968   -0.2145    6.6630 H   0  0  0  0  0  0  0  0  0  0  0  0
  1  2  1  0
  1 42  1  0
  1 43  1  0
  1 44  1  0
  3  2  1  1
  3 13  1  0
  3 41  1  0
  3  4  1  0
  4 10  1  0
  4  5  2  0
  5  6  1  0
  5 45  1  0
  6  7  1  0
  6 15  1  0
  6 46  1  1
  7  8  1  0
  7  9  1  0
  7 47  1  1
  8 48  1  0
  8 49  1  0
  8 50  1  0
  9 10  1  0
 10 11  1  1
 10 12  1  0
 11 51  1  0
 11 52  1  0
 11 53  1  0
 12 13  1  0
 12 54  1  0
 12 55  1  0
 13 14  1  0
 13 56  1  1
 14 57  1  0
 15 41  1  0
 15 16  1  1
 15 17  1  0
 16 58  1  0
 17 18  2  0
 17 19  1  0
 19 37  1  0
 19 20  1  1
 19 21  1  0
 20 59  1  0
 20 60  1  0
 20 61  1  0
 21 22  1  0
 21 23  1  0
 21 62  1  6
 22 63  1  0
 23 24  1  0
 23 64  1  0
 23 65  1  0
 24 35  1  0
 24 25  1  0
 24 66  1  6
 25 26  1  0
 25 37  1  0
 25 67  1  1
 26 27  2  0
 26 68  1  0
 27 28  1  0
 27 69  1  0
 28 35  1  0
 28 29  2  0
 29 30  1  0
 29 70  1  0
 30 31  1  0
 30 32  1  0
 30 71  1  1
 31 72  1  0
 32 33  1  0
 32 73  1  0
 32 74  1  0
 33 34  1  0
 33 35  1  0
 33 75  1  1
 34 76  1  0
 35 36  1  6
 36 77  1  0
 36 78  1  0
 36 79  1  0
 37 38  1  6
 37 39  1  0
 38 80  1  0
 38 81  1  0
 38 82  1  0
 39 40  1  0
 39 41  1  0
 39 83  1  6
 40 84  1  0
 41 85  1  1
M  END
>  <i_m_ct_stereo_status>  (303) 
1

>  <s_m_source_file>  (303) 
/var/tmp/pbs.5076255.sched01/tmpgyl_4d9e/126kfdajayx.sdf

>  <i_m_source_file_index>  (303) 
32

>  <i_lp_mmshare_version>  (303) 
48012

>  <i_f3d_flags>  (303) 
1

>  <s_epik_input>  (303) 
W0NIM11PW0NAXTEyQz0zW0NAXShbQ0gzXSkoW0NIMl1bQ0BIXTFbT0hdKU9bQ0BIXShbQ0gzXSlbQ0BASF0oW0NIXTMpW0NAQF00KFtPSF0pW0NAQEhdMltDQEhdKFtPSF0pW0NAQF01KFtDSDNdKVtDQEBdKEM0PU8pKFtDSDNdKVtDQEBIXShbT0hdKVtDSDJdW0NASF02W0NAQEhdNVtDSF09W0NIXUM9N1tDQF02KFtDSDNdKVtDQEhdKFtPSF0pW0NIMl1bQ0BASF0oW0NIXTcpW09IXQ==

>  <s_epik_cmdline>  (303) 
J2VwaWtfcHl0aG9uJywgJy1waHQnLCAnMi4wJywgJy1waCcsICc3LjAnLCAnLXRuJywgJzgnLCAnLW1hJywgJzIwMCcsICctaW1hZScsICc8aW5maWxlLm1hZT4nLCAnLW9tYWUnLCAnPG91dGZpbGUubWFlPic=

>  <r_lp_tautomer_probability>  (303) 
1

>  <r_epik_Ionization_Penalty>  (303) 
9.43174e-07

>  <r_epik_Ionization_Penalty_Charging>  (303) 
0

>  <r_epik_Ionization_Penalty_Neutral>  (303) 
9.43174e-07

>  <r_epik_State_Penalty>  (303) 
-0

>  <r_epik_Charging_Adjusted_Penalty>  (303) 
0

>  <i_epik_Tot_Q>  (303) 
0

>  <i_epik_Tot_abs_Q>  (303) 
0

>  <s_lp_Force_Field>  (303) 
OPLS3e

>  <r_lp_Energy>  (303) 
145.589

>  <b_lp_Chiralities_Consistent>  (303) 
1

>  <s_lp_Variant>  (303) 
106:0-1

>  <s_i_glide_gridfile>  (303) 
pfpi4k_grid

>  <i_i_glide_lignum>  (303) 
32

>  <i_i_glide_rotatable_bonds>  (303) 
7

>  <r_i_docking_score>  (303) 
-3.29288

>  <r_i_glide_ligand_efficiency>  (303) 
-0.0803141

>  <r_i_glide_ligand_efficiency_sa>  (303) 
-0.276941

>  <r_i_glide_ligand_efficiency_ln>  (303) 
-0.698595

>  <r_i_glide_gscore>  (303) 
-3.29288

>  <r_i_glide_lipo>  (303) 
-0.505637

>  <r_i_glide_hbond>  (303) 
-0.307555

>  <r_i_glide_metal>  (303) 
-0

>  <r_i_glide_rewards>  (303) 
0

>  <r_i_glide_evdw>  (303) 
-26.3449

>  <r_i_glide_ecoul>  (303) 
-7.74959

>  <r_i_glide_erotb>  (303) 
0

>  <r_i_glide_esite>  (303) 
0

>  <r_i_glide_emodel>  (303) 
-41.8445

>  <r_i_glide_energy>  (303) 
-34.0945

>  <r_i_glide_einternal>  (303) 
0.841532

>  <r_i_glide_intrahb_reward>  (303) 
-0

>  <i_i_glide_confnum>  (303) 
2

>  <i_i_glide_posenum>  (303) 
19

>  <r_i_glide_eff_state_penalty>  (303) 
0

>  <ligand_id>  (303) 
106

>  <original_smiles>  (303) 
COC12C3=CC(C(C)OC3(C)CC1O)C1(O)C(=O)C3(C)C(O)CC4C(C=CC5=CC(O)CC(O)C54C)C3(C)C(O)C12

>  <smiles>  (303) 
[H]OC1([H])C([H])=C2C([H])=C([H])C3([H])C([H])(C([H])([H])C([H])(O[H])C4(C([H])([H])[H])C(=O)C5(O[H])C6([H])C([H])=C7C(C([H])([H])[H])(OC6([H])C([H])([H])[H])C([H])([H])C([H])(O[H])C7(OC([H])([H])[H])C5([H])C([H])(O[H])C34C([H])([H])[H])C2(C([H])([H])[H])C([H])(O[H])C1([H])[H]

$$$$
106:0:2
     RDKit          3D

 85 91  0  0  1  0  0  0  0  0999 V2000
    5.9656   -6.7297    5.0356 C   0  0  0  0  0  0  0  0  0  0  0  0
    5.5485   -5.9025    3.9548 O   0  0  0  0  0  0  0  0  0  0  0  0
    4.1489   -5.6831    3.7114 C   0  0  2  0  0  0  0  0  0  0  0  0
    3.3893   -6.9927    3.5115 C   0  0  0  0  0  0  0  0  0  0  0  0
    2.9375   -7.6499    4.5853 C   0  0  0  0  0  0  0  0  0  0  0  0
    1.8585   -6.8880    5.2934 C   0  0  2  0  0  0  0  0  0  0  0  0
    0.6910   -6.8852    4.2536 C   0  0  1  0  0  0  0  0  0  0  0  0
   -0.6796   -6.3874    4.7285 C   0  0  0  0  0  0  0  0  0  0  0  0
    1.0959   -6.2538    3.0327 O   0  0  0  0  0  0  0  0  0  0  0  0
    2.3289   -6.7084    2.4368 C   0  0  2  0  0  0  0  0  0  0  0  0
    2.0242   -7.9291    1.5508 C   0  0  0  0  0  0  0  0  0  0  0  0
    2.8511   -5.5103    1.6236 C   0  0  0  0  0  0  0  0  0  0  0  0
    4.2127   -5.2016    2.2350 C   0  0  1  0  0  0  0  0  0  0  0  0
    4.7020   -3.9086    1.9295 O   0  0  0  0  0  0  0  0  0  0  0  0
    2.4813   -5.5469    5.8528 C   0  0  2  0  0  0  0  0  0  0  0  0
    3.2862   -6.0438    6.9169 O   0  0  0  0  0  0  0  0  0  0  0  0
    1.4453   -4.6563    6.5785 C   0  0  0  0  0  0  0  0  0  0  0  0
    0.5107   -5.1847    7.1817 O   0  0  0  0  0  0  0  0  0  0  0  0
    1.6479   -3.1149    6.6133 C   0  0  2  0  0  0  0  0  0  0  0  0
    2.8850   -2.8332    7.5185 C   0  0  0  0  0  0  0  0  0  0  0  0
    0.3980   -2.3895    7.2393 C   0  0  1  0  0  0  0  0  0  0  0  0
    0.1307   -2.7253    8.5908 O   0  0  0  0  0  0  0  0  0  0  0  0
    0.5335   -0.8597    7.2570 C   0  0  0  0  0  0  0  0  0  0  0  0
    0.8558   -0.1896    5.9044 C   0  0  1  0  0  0  0  0  0  0  0  0
    1.9202   -1.0146    5.0866 C   0  0  2  0  0  0  0  0  0  0  0  0
    2.1233   -0.4394    3.6860 C   0  0  0  0  0  0  0  0  0  0  0  0
    1.4488    0.6063    3.1871 C   0  0  0  0  0  0  0  0  0  0  0  0
    0.3875    1.2683    3.9193 C   0  0  0  0  0  0  0  0  0  0  0  0
    0.0692    2.5181    3.5226 C   0  0  0  0  0  0  0  0  0  0  0  0
   -0.9543    3.4190    4.1741 C   0  0  1  0  0  0  0  0  0  0  0  0
   -1.7288    4.0892    3.1964 O   0  0  0  0  0  0  0  0  0  0  0  0
   -1.8649    2.6395    5.1276 C   0  0  0  0  0  0  0  0  0  0  0  0
   -1.0828    1.6003    5.9665 C   0  0  1  0  0  0  0  0  0  0  0  0
   -2.0317    1.0245    6.8560 O   0  0  0  0  0  0  0  0  0  0  0  0
   -0.2979    0.5410    5.0968 C   0  0  2  0  0  0  0  0  0  0  0  0
   -1.3087   -0.4638    4.5057 C   0  0  0  0  0  0  0  0  0  0  0  0
    1.8474   -2.6077    5.1311 C   0  0  2  0  0  0  0  0  0  0  0  0
    0.6830   -3.0594    4.2004 C   0  0  0  0  0  0  0  0  0  0  0  0
    3.1105   -3.2907    4.4696 C   0  0  1  0  0  0  0  0  0  0  0  0
    4.2929   -2.5208    4.6561 O   0  0  0  0  0  0  0  0  0  0  0  0
    3.4715   -4.7817    4.8543 C   0  0  2  0  0  0  0  0  0  0  0  0
    7.0537   -6.7130    5.0782 H   0  0  0  0  0  0  0  0  0  0  0  0
    5.6613   -7.7675    4.9011 H   0  0  0  0  0  0  0  0  0  0  0  0
    5.6149   -6.3726    5.9999 H   0  0  0  0  0  0  0  0  0  0  0  0
    2.5207   -8.6220    4.3652 H   0  0  0  0  0  0  0  0  0  0  0  0
    1.5309   -7.5051    6.1337 H   0  0  0  0  0  0  0  0  0  0  0  0
    0.4913   -7.9266    3.9950 H   0  0  0  0  0  0  0  0  0  0  0  0
   -1.4570   -6.6139    3.9990 H   0  0  0  0  0  0  0  0  0  0  0  0
   -0.6884   -5.3202    4.9058 H   0  0  0  0  0  0  0  0  0  0  0  0
   -0.9650   -6.8682    5.6623 H   0  0  0  0  0  0  0  0  0  0  0  0
    2.9150   -8.2839    1.0310 H   0  0  0  0  0  0  0  0  0  0  0  0
    1.2729   -7.6794    0.8028 H   0  0  0  0  0  0  0  0  0  0  0  0
    1.6280   -8.7687    2.1229 H   0  0  0  0  0  0  0  0  0  0  0  0
    2.9480   -5.7329    0.5600 H   0  0  0  0  0  0  0  0  0  0  0  0
    2.1822   -4.6552    1.7084 H   0  0  0  0  0  0  0  0  0  0  0  0
    4.9093   -5.8716    1.7270 H   0  0  0  0  0  0  0  0  0  0  0  0
    4.1545   -3.2607    2.3431 H   0  0  0  0  0  0  0  0  0  0  0  0
    3.9054   -6.6640    6.5599 H   0  0  0  0  0  0  0  0  0  0  0  0
    3.1381   -1.7777    7.5808 H   0  0  0  0  0  0  0  0  0  0  0  0
    3.7872   -3.3298    7.1771 H   0  0  0  0  0  0  0  0  0  0  0  0
    2.7265   -3.1900    8.5363 H   0  0  0  0  0  0  0  0  0  0  0  0
   -0.5086   -2.6587    6.7057 H   0  0  0  0  0  0  0  0  0  0  0  0
    0.9357   -2.6372    9.0845 H   0  0  0  0  0  0  0  0  0  0  0  0
   -0.3504   -0.4372    7.7135 H   0  0  0  0  0  0  0  0  0  0  0  0
    1.3275   -0.5897    7.9562 H   0  0  0  0  0  0  0  0  0  0  0  0
    1.4304    0.6799    6.2260 H   0  0  0  0  0  0  0  0  0  0  0  0
    2.8483   -0.7503    5.5914 H   0  0  0  0  0  0  0  0  0  0  0  0
    2.8991   -0.8780    3.0784 H   0  0  0  0  0  0  0  0  0  0  0  0
    1.6972    0.9522    2.1974 H   0  0  0  0  0  0  0  0  0  0  0  0
    0.6030    2.9640    2.6941 H   0  0  0  0  0  0  0  0  0  0  0  0
   -0.3966    4.1718    4.7312 H   0  0  0  0  0  0  0  0  0  0  0  0
   -1.1961    4.1772    2.4079 H   0  0  0  0  0  0  0  0  0  0  0  0
   -2.3818    3.3472    5.7774 H   0  0  0  0  0  0  0  0  0  0  0  0
   -2.6458    2.1446    4.5499 H   0  0  0  0  0  0  0  0  0  0  0  0
   -0.3650    2.1497    6.5758 H   0  0  0  0  0  0  0  0  0  0  0  0
   -2.4130    1.7364    7.3532 H   0  0  0  0  0  0  0  0  0  0  0  0
   -1.6619   -1.1707    5.2553 H   0  0  0  0  0  0  0  0  0  0  0  0
   -0.8598   -1.0132    3.6864 H   0  0  0  0  0  0  0  0  0  0  0  0
   -2.1840    0.0336    4.0896 H   0  0  0  0  0  0  0  0  0  0  0  0
    0.6897   -2.5438    3.2378 H   0  0  0  0  0  0  0  0  0  0  0  0
   -0.3085   -2.9538    4.6305 H   0  0  0  0  0  0  0  0  0  0  0  0
    0.7914   -4.1030    3.9349 H   0  0  0  0  0  0  0  0  0  0  0  0
    2.9116   -3.2410    3.4037 H   0  0  0  0  0  0  0  0  0  0  0  0
    4.1556   -1.6462    4.3203 H   0  0  0  0  0  0  0  0  0  0  0  0
    4.3304   -4.6062    5.5032 H   0  0  0  0  0  0  0  0  0  0  0  0
  1  2  1  0
  1 42  1  0
  1 43  1  0
  1 44  1  0
  3  2  1  1
  3 13  1  0
  3 41  1  0
  3  4  1  0
  4 10  1  0
  4  5  2  0
  5  6  1  0
  5 45  1  0
  6  7  1  0
  6 15  1  0
  6 46  1  1
  7  8  1  0
  7  9  1  0
  7 47  1  6
  8 48  1  0
  8 49  1  0
  8 50  1  0
  9 10  1  0
 10 11  1  6
 10 12  1  0
 11 51  1  0
 11 52  1  0
 11 53  1  0
 12 13  1  0
 12 54  1  0
 12 55  1  0
 13 14  1  0
 13 56  1  6
 14 57  1  0
 15 41  1  0
 15 16  1  1
 15 17  1  0
 16 58  1  0
 17 18  2  0
 17 19  1  0
 19 37  1  0
 19 20  1  1
 19 21  1  0
 20 59  1  0
 20 60  1  0
 20 61  1  0
 21 22  1  0
 21 23  1  0
 21 62  1  6
 22 63  1  0
 23 24  1  0
 23 64  1  0
 23 65  1  0
 24 35  1  0
 24 25  1  0
 24 66  1  1
 25 26  1  0
 25 37  1  0
 25 67  1  1
 26 27  2  0
 26 68  1  0
 27 28  1  0
 27 69  1  0
 28 35  1  0
 28 29  2  0
 29 30  1  0
 29 70  1  0
 30 31  1  0
 30 32  1  0
 30 71  1  1
 31 72  1  0
 32 33  1  0
 32 73  1  0
 32 74  1  0
 33 34  1  0
 33 35  1  0
 33 75  1  1
 34 76  1  0
 35 36  1  6
 36 77  1  0
 36 78  1  0
 36 79  1  0
 37 38  1  6
 37 39  1  0
 38 80  1  0
 38 81  1  0
 38 82  1  0
 39 40  1  0
 39 41  1  0
 39 83  1  6
 40 84  1  0
 41 85  1  1
M  END
>  <i_m_ct_stereo_status>  (304) 
1

>  <s_m_source_file>  (304) 
/var/tmp/pbs.5076255.sched01/tmpgyl_4d9e/126kfdajayx.sdf

>  <i_m_source_file_index>  (304) 
32

>  <i_lp_mmshare_version>  (304) 
48012

>  <i_f3d_flags>  (304) 
1

>  <s_epik_input>  (304) 
W0NIM11PW0NAXTEyQz0zW0NAXShbQ0gzXSkoW0NIMl1bQ0BIXTFbT0hdKU9bQ0BIXShbQ0gzXSlbQ0BASF0oW0NIXTMpW0NAQF00KFtPSF0pW0NAQEhdMltDQEhdKFtPSF0pW0NAQF01KFtDSDNdKVtDQEBdKEM0PU8pKFtDSDNdKVtDQEBIXShbT0hdKVtDSDJdW0NASF02W0NAQEhdNVtDSF09W0NIXUM9N1tDQF02KFtDSDNdKVtDQEhdKFtPSF0pW0NIMl1bQ0BASF0oW0NIXTcpW09IXQ==

>  <s_epik_cmdline>  (304) 
J2VwaWtfcHl0aG9uJywgJy1waHQnLCAnMi4wJywgJy1waCcsICc3LjAnLCAnLXRuJywgJzgnLCAnLW1hJywgJzIwMCcsICctaW1hZScsICc8aW5maWxlLm1hZT4nLCAnLW9tYWUnLCAnPG91dGZpbGUubWFlPic=

>  <r_lp_tautomer_probability>  (304) 
1

>  <r_epik_Ionization_Penalty>  (304) 
9.43174e-07

>  <r_epik_Ionization_Penalty_Charging>  (304) 
0

>  <r_epik_Ionization_Penalty_Neutral>  (304) 
9.43174e-07

>  <r_epik_State_Penalty>  (304) 
-0

>  <r_epik_Charging_Adjusted_Penalty>  (304) 
0

>  <i_epik_Tot_Q>  (304) 
0

>  <i_epik_Tot_abs_Q>  (304) 
0

>  <s_lp_Force_Field>  (304) 
OPLS3e

>  <r_lp_Energy>  (304) 
145.589

>  <b_lp_Chiralities_Consistent>  (304) 
1

>  <s_lp_Variant>  (304) 
106:0-1

>  <s_i_glide_gridfile>  (304) 
pfpi4k_grid

>  <i_i_glide_lignum>  (304) 
32

>  <i_i_glide_rotatable_bonds>  (304) 
7

>  <r_i_docking_score>  (304) 
-3.16063

>  <r_i_glide_ligand_efficiency>  (304) 
-0.0770886

>  <r_i_glide_ligand_efficiency_sa>  (304) 
-0.265818

>  <r_i_glide_ligand_efficiency_ln>  (304) 
-0.670539

>  <r_i_glide_gscore>  (304) 
-3.16063

>  <r_i_glide_lipo>  (304) 
-0.0563256

>  <r_i_glide_hbond>  (304) 
-0.30164

>  <r_i_glide_metal>  (304) 
-0

>  <r_i_glide_rewards>  (304) 
0

>  <r_i_glide_evdw>  (304) 
-24.0051

>  <r_i_glide_ecoul>  (304) 
-10.6828

>  <r_i_glide_erotb>  (304) 
0

>  <r_i_glide_esite>  (304) 
0

>  <r_i_glide_emodel>  (304) 
-41.9597

>  <r_i_glide_energy>  (304) 
-34.6878

>  <r_i_glide_einternal>  (304) 
1.56131

>  <r_i_glide_intrahb_reward>  (304) 
-0

>  <i_i_glide_confnum>  (304) 
2

>  <i_i_glide_posenum>  (304) 
31

>  <r_i_glide_eff_state_penalty>  (304) 
0

>  <ligand_id>  (304) 
106

>  <original_smiles>  (304) 
COC12C3=CC(C(C)OC3(C)CC1O)C1(O)C(=O)C3(C)C(O)CC4C(C=CC5=CC(O)CC(O)C54C)C3(C)C(O)C12

>  <smiles>  (304) 
[H]OC1([H])C([H])=C2C([H])=C([H])C3([H])C([H])(C([H])([H])C([H])(O[H])C4(C([H])([H])[H])C(=O)C5(O[H])C6([H])C([H])=C7C(C([H])([H])[H])(OC6([H])C([H])([H])[H])C([H])([H])C([H])(O[H])C7(OC([H])([H])[H])C5([H])C([H])(O[H])C34C([H])([H])[H])C2(C([H])([H])[H])C([H])(O[H])C1([H])[H]

$$$$
107:0:0
     RDKit          3D

 72 76  0  0  1  0  0  0  0  0999 V2000
   -2.2223    2.6696    5.5394 C   0  0  0  0  0  0  0  0  0  0  0  0
   -1.6826    2.5349    6.7677 C   0  0  0  0  0  0  0  0  0  0  0  0
   -2.1599    3.4197    7.9083 C   0  0  0  0  0  0  0  0  0  0  0  0
   -0.5975    1.5162    7.1462 C   0  0  2  0  0  0  0  0  0  0  0  0
    0.5668    2.1299    7.9294 C   0  0  0  0  0  0  0  0  0  0  0  0
    1.7451    1.1936    7.6675 C   0  0  0  0  0  0  0  0  0  0  0  0
    1.6186    0.7590    6.1845 C   0  0  2  0  0  0  0  0  0  0  0  0
    2.2227    1.9086    5.3278 C   0  0  0  0  0  0  0  0  0  0  0  0
    0.0739    0.7199    5.9897 C   0  0  1  0  0  0  0  0  0  0  0  0
   -0.4883   -0.7043    5.8707 C   0  0  0  0  0  0  0  0  0  0  0  0
    0.1838   -1.4234    4.7000 C   0  0  0  0  0  0  0  0  0  0  0  0
    1.7097   -1.6875    4.9132 C   0  0  2  0  0  0  0  0  0  0  0  0
    1.7776   -3.0759    5.6324 C   0  0  0  0  0  0  0  0  0  0  0  0
    2.3172   -0.6460    5.9550 C   0  0  1  0  0  0  0  0  0  0  0  0
    3.8652   -0.6208    6.0003 C   0  0  0  0  0  0  0  0  0  0  0  0
    4.5098   -0.6607    4.6196 C   0  0  0  0  0  0  0  0  0  0  0  0
    5.3143    0.1980    4.2685 O   0  0  0  0  0  0  0  0  0  0  0  0
    4.0506   -1.8427    3.7527 C   0  0  2  0  0  0  0  0  0  0  0  0
    4.8535   -2.1077    2.4552 C   0  0  0  0  0  0  0  0  0  0  0  0
    5.9551   -1.5087    1.9542 C   0  0  0  0  0  0  0  0  0  0  0  0
    6.2817   -2.0787    0.6374 C   0  0  0  0  0  0  0  0  0  0  0  0
    7.3142   -1.9111   -0.0869 N   0  0  0  0  0  0  0  0  0  0  0  0
    8.2717   -1.0572    0.5289 O   0  0  0  0  0  0  0  0  0  0  0  0
    5.1134   -2.9593    0.2342 C   0  0  1  0  0  0  0  0  0  0  0  0
    5.4588   -4.1816   -0.6329 C   0  0  0  0  0  0  0  0  0  0  0  0
    4.3728   -3.2438    1.5683 C   0  0  1  0  0  0  0  0  0  0  0  0
    4.8115   -4.5822    2.2182 C   0  0  0  0  0  0  0  0  0  0  0  0
    2.8448   -3.1979    1.3712 C   0  0  0  0  0  0  0  0  0  0  0  0
    2.0896   -3.0228    2.6981 C   0  0  0  0  0  0  0  0  0  0  0  0
    2.5029   -1.7610    3.5138 C   0  0  1  0  0  0  0  0  0  0  0  0
    2.2043   -0.5308    2.6031 C   0  0  0  0  0  0  0  0  0  0  0  0
   -2.9787    3.4186    5.3599 H   0  0  0  0  0  0  0  0  0  0  0  0
   -1.9451    2.0598    4.6939 H   0  0  0  0  0  0  0  0  0  0  0  0
   -1.3429    4.0073    8.3280 H   0  0  0  0  0  0  0  0  0  0  0  0
   -2.5874    2.8166    8.7102 H   0  0  0  0  0  0  0  0  0  0  0  0
   -2.9220    4.1243    7.5765 H   0  0  0  0  0  0  0  0  0  0  0  0
   -1.0754    0.8079    7.8250 H   0  0  0  0  0  0  0  0  0  0  0  0
    0.7918    3.1337    7.5667 H   0  0  0  0  0  0  0  0  0  0  0  0
    0.3483    2.2102    8.9953 H   0  0  0  0  0  0  0  0  0  0  0  0
    2.7020    1.6689    7.8925 H   0  0  0  0  0  0  0  0  0  0  0  0
    1.6410    0.3480    8.3503 H   0  0  0  0  0  0  0  0  0  0  0  0
    1.8094    1.9663    4.3260 H   0  0  0  0  0  0  0  0  0  0  0  0
    3.3051    1.8587    5.2424 H   0  0  0  0  0  0  0  0  0  0  0  0
    2.0097    2.8856    5.7558 H   0  0  0  0  0  0  0  0  0  0  0  0
   -0.1107    1.1964    5.0339 H   0  0  0  0  0  0  0  0  0  0  0  0
   -0.3635   -1.2678    6.7958 H   0  0  0  0  0  0  0  0  0  0  0  0
   -1.5596   -0.6499    5.6845 H   0  0  0  0  0  0  0  0  0  0  0  0
   -0.3457   -2.3561    4.5102 H   0  0  0  0  0  0  0  0  0  0  0  0
   -0.0243   -0.8181    3.8236 H   0  0  0  0  0  0  0  0  0  0  0  0
    2.7991   -3.4148    5.7861 H   0  0  0  0  0  0  0  0  0  0  0  0
    1.2492   -3.8665    5.1025 H   0  0  0  0  0  0  0  0  0  0  0  0
    1.3065   -3.0620    6.6155 H   0  0  0  0  0  0  0  0  0  0  0  0
    2.0988   -1.1215    6.9106 H   0  0  0  0  0  0  0  0  0  0  0  0
    4.2220    0.2407    6.5585 H   0  0  0  0  0  0  0  0  0  0  0  0
    4.2168   -1.5016    6.5371 H   0  0  0  0  0  0  0  0  0  0  0  0
    4.2457   -2.7248    4.3560 H   0  0  0  0  0  0  0  0  0  0  0  0
    6.5276   -0.6897    2.3670 H   0  0  0  0  0  0  0  0  0  0  0  0
    7.7616   -0.5207    1.1305 H   0  0  0  0  0  0  0  0  0  0  0  0
    4.4862   -2.3171   -0.3816 H   0  0  0  0  0  0  0  0  0  0  0  0
    5.8442   -3.8688   -1.6027 H   0  0  0  0  0  0  0  0  0  0  0  0
    4.5732   -4.7883   -0.8271 H   0  0  0  0  0  0  0  0  0  0  0  0
    6.2101   -4.8223   -0.1756 H   0  0  0  0  0  0  0  0  0  0  0  0
    4.4911   -5.4441    1.6321 H   0  0  0  0  0  0  0  0  0  0  0  0
    4.4016   -4.7071    3.2214 H   0  0  0  0  0  0  0  0  0  0  0  0
    5.8981   -4.6356    2.3199 H   0  0  0  0  0  0  0  0  0  0  0  0
    2.5659   -2.3943    0.6899 H   0  0  0  0  0  0  0  0  0  0  0  0
    2.5211   -4.1127    0.8770 H   0  0  0  0  0  0  0  0  0  0  0  0
    1.0174   -2.9943    2.4900 H   0  0  0  0  0  0  0  0  0  0  0  0
    2.2610   -3.9362    3.2590 H   0  0  0  0  0  0  0  0  0  0  0  0
    2.8851   -0.4638    1.7561 H   0  0  0  0  0  0  0  0  0  0  0  0
    2.3199    0.4008    3.1346 H   0  0  0  0  0  0  0  0  0  0  0  0
    1.2055   -0.5511    2.1627 H   0  0  0  0  0  0  0  0  0  0  0  0
  1  2  2  0
  1 32  1  0
  1 33  1  0
  2  3  1  0
  2  4  1  0
  3 34  1  0
  3 35  1  0
  3 36  1  0
  4  9  1  0
  4  5  1  0
  4 37  1  1
  5  6  1  0
  5 38  1  0
  5 39  1  0
  6  7  1  0
  6 40  1  0
  6 41  1  0
  7 14  1  0
  7  8  1  6
  7  9  1  0
  8 42  1  0
  8 43  1  0
  8 44  1  0
  9 10  1  0
  9 45  1  6
 10 11  1  0
 10 46  1  0
 10 47  1  0
 11 12  1  0
 11 48  1  0
 11 49  1  0
 12 30  1  0
 12 13  1  1
 12 14  1  0
 13 50  1  0
 13 51  1  0
 13 52  1  0
 14 15  1  0
 14 53  1  1
 15 16  1  0
 15 54  1  0
 15 55  1  0
 16 17  2  0
 16 18  1  0
 18 30  1  0
 18 19  1  0
 18 56  1  1
 19 26  1  0
 19 20  2  0
 20 21  1  0
 20 57  1  0
 21 22  2  3
 21 24  1  0
 22 23  1  0
 23 58  1  0
 24 25  1  0
 24 26  1  0
 24 59  1  6
 25 60  1  0
 25 61  1  0
 25 62  1  0
 26 27  1  1
 26 28  1  0
 27 63  1  0
 27 64  1  0
 27 65  1  0
 28 29  1  0
 28 66  1  0
 28 67  1  0
 29 30  1  0
 29 68  1  0
 29 69  1  0
 30 31  1  6
 31 70  1  0
 31 71  1  0
 31 72  1  0
M  END
>  <i_m_ct_stereo_status>  (305) 
1

>  <s_m_source_file>  (305) 
/var/tmp/pbs.5076255.sched01/tmpgyl_4d9e/126kfdajayx.sdf

>  <i_m_source_file_index>  (305) 
33

>  <i_lp_mmshare_version>  (305) 
48012

>  <i_f3d_flags>  (305) 
0

>  <s_epik_input>  (305) 
W0NIMl09QyhbQ0gzXSlbQ0BIXShbQ0gyXVtDSDJdMSlbQ0BASF0oW0NAQF0xMltDSDNdKVtDSDJdW0NIMl1bQ0BdMyhbQ0gzXSlbQ0BIXTJbQ0gyXUMoPU8pW0NAQEhdNEM9NVtDQF0oW0NIM10pKFtDQEhdKFtDSDNdKUMoXFtDSF01KT1OXFtPSF0pW0NIMl1bQ0gyXVtDQEBdMzRbQ0gzXQ==

>  <s_epik_cmdline>  (305) 
J2VwaWtfcHl0aG9uJywgJy1waHQnLCAnMi4wJywgJy1waCcsICc3LjAnLCAnLXRuJywgJzgnLCAnLW1hJywgJzIwMCcsICctaW1hZScsICc8aW5maWxlLm1hZT4nLCAnLW9tYWUnLCAnPG91dGZpbGUubWFlPic=

>  <r_lp_tautomer_probability>  (305) 
1

>  <r_epik_Ionization_Penalty>  (305) 
3.06194e-06

>  <r_epik_Ionization_Penalty_Charging>  (305) 
0

>  <r_epik_Ionization_Penalty_Neutral>  (305) 
3.06194e-06

>  <r_epik_State_Penalty>  (305) 
-0

>  <r_epik_Charging_Adjusted_Penalty>  (305) 
0

>  <i_epik_Tot_Q>  (305) 
0

>  <i_epik_Tot_abs_Q>  (305) 
0

>  <s_epik_Chemistry_Notes>  (305) 
This compound has an imine and may undergo hydrolysis.

>  <s_lp_Force_Field>  (305) 
OPLS3e

>  <r_lp_Energy>  (305) 
68.6297

>  <b_lp_Chiralities_Consistent>  (305) 
1

>  <s_lp_Variant>  (305) 
107:0-1

>  <s_i_glide_gridfile>  (305) 
pfpi4k_grid

>  <i_i_glide_lignum>  (305) 
33

>  <i_i_glide_rotatable_bonds>  (305) 
2

>  <r_i_docking_score>  (305) 
-3.24265

>  <r_i_glide_ligand_efficiency>  (305) 
-0.104602

>  <r_i_glide_ligand_efficiency_sa>  (305) 
-0.328593

>  <r_i_glide_ligand_efficiency_ln>  (305) 
-0.731316

>  <r_i_glide_gscore>  (305) 
-3.24265

>  <r_i_glide_lipo>  (305) 
-0.435749

>  <r_i_glide_hbond>  (305) 
-0.208304

>  <r_i_glide_metal>  (305) 
-0

>  <r_i_glide_rewards>  (305) 
-0.669601

>  <r_i_glide_evdw>  (305) 
-25.0146

>  <r_i_glide_ecoul>  (305) 
-5.34551

>  <r_i_glide_erotb>  (305) 
0.220894

>  <r_i_glide_esite>  (305) 
-0.09733

>  <r_i_glide_emodel>  (305) 
-35.8452

>  <r_i_glide_energy>  (305) 
-30.3601

>  <r_i_glide_einternal>  (305) 
0.903883

>  <r_i_glide_intrahb_reward>  (305) 
-0

>  <i_i_glide_confnum>  (305) 
3

>  <i_i_glide_posenum>  (305) 
1

>  <r_i_glide_eff_state_penalty>  (305) 
0

>  <ligand_id>  (305) 
107

>  <original_smiles>  (305) 
C=C(C)C1CCC2(C)C1CCC1(C)C2CC(=O)C2C3=CC(=NO)C(C)C3(C)CCC21C

>  <smiles>  (305) 
[H]ON=C1C([H])=C2C3([H])C(=O)C([H])([H])C4([H])C5(C([H])([H])[H])C([H])([H])C([H])([H])C([H])(C(=C([H])[H])C([H])([H])[H])C5([H])C([H])([H])C([H])([H])C4(C([H])([H])[H])C3(C([H])([H])[H])C([H])([H])C([H])([H])C2(C([H])([H])[H])C1([H])C([H])([H])[H]

$$$$
107:0:1
     RDKit          3D

 72 76  0  0  1  0  0  0  0  0999 V2000
   -1.4503    3.3017    5.2072 C   0  0  0  0  0  0  0  0  0  0  0  0
   -1.0773    2.9419    6.4516 C   0  0  0  0  0  0  0  0  0  0  0  0
   -1.6114    3.7014    7.6552 C   0  0  0  0  0  0  0  0  0  0  0  0
   -0.1356    1.7781    6.7939 C   0  0  2  0  0  0  0  0  0  0  0  0
    1.0229    2.1864    7.7084 C   0  0  0  0  0  0  0  0  0  0  0  0
    2.1156    1.1541    7.4313 C   0  0  0  0  0  0  0  0  0  0  0  0
    2.0548    0.8709    5.9078 C   0  0  2  0  0  0  0  0  0  0  0  0
    2.8356    2.0202    5.2072 C   0  0  0  0  0  0  0  0  0  0  0  0
    0.5329    1.0191    5.6113 C   0  0  1  0  0  0  0  0  0  0  0  0
   -0.1650   -0.3185    5.3215 C   0  0  0  0  0  0  0  0  0  0  0  0
    0.5117   -0.9965    4.1287 C   0  0  0  0  0  0  0  0  0  0  0  0
    1.9840   -1.4443    4.4082 C   0  0  2  0  0  0  0  0  0  0  0  0
    1.8529   -2.8921    4.9896 C   0  0  0  0  0  0  0  0  0  0  0  0
    2.6176   -0.5764    5.5853 C   0  0  1  0  0  0  0  0  0  0  0  0
    4.1530   -0.7253    5.7283 C   0  0  0  0  0  0  0  0  0  0  0  0
    4.8840   -0.7024    4.3918 C   0  0  0  0  0  0  0  0  0  0  0  0
    5.7833    0.1097    4.1719 O   0  0  0  0  0  0  0  0  0  0  0  0
    4.3776   -1.7448    3.3838 C   0  0  2  0  0  0  0  0  0  0  0  0
    5.2428   -1.9778    2.1143 C   0  0  0  0  0  0  0  0  0  0  0  0
    6.4262   -1.4566    1.7320 C   0  0  0  0  0  0  0  0  0  0  0  0
    6.7976   -1.9645    0.4028 C   0  0  0  0  0  0  0  0  0  0  0  0
    7.8972   -1.8798   -0.2398 N   0  0  0  0  0  0  0  0  0  0  0  0
    8.8919   -1.1571    0.4861 O   0  0  0  0  0  0  0  0  0  0  0  0
    5.5658   -2.6531   -0.1502 C   0  0  1  0  0  0  0  0  0  0  0  0
    5.8297   -3.8189   -1.1099 C   0  0  0  0  0  0  0  0  0  0  0  0
    4.7070   -2.9756    1.0997 C   0  0  1  0  0  0  0  0  0  0  0  0
    4.9531   -4.4070    1.6427 C   0  0  0  0  0  0  0  0  0  0  0  0
    3.2100   -2.7422    0.8124 C   0  0  0  0  0  0  0  0  0  0  0  0
    2.3830   -2.6008    2.0988 C   0  0  0  0  0  0  0  0  0  0  0  0
    2.8667   -1.4745    3.0601 C   0  0  1  0  0  0  0  0  0  0  0  0
    2.7626   -0.1416    2.2583 C   0  0  0  0  0  0  0  0  0  0  0  0
   -2.1150    4.1408    5.0629 H   0  0  0  0  0  0  0  0  0  0  0  0
   -1.1221    2.7951    4.3126 H   0  0  0  0  0  0  0  0  0  0  0  0
   -0.8042    4.1354    8.2452 H   0  0  0  0  0  0  0  0  0  0  0  0
   -2.1886    3.0415    8.3034 H   0  0  0  0  0  0  0  0  0  0  0  0
   -2.2611    4.5208    7.3540 H   0  0  0  0  0  0  0  0  0  0  0  0
   -0.7356    1.0667    7.3638 H   0  0  0  0  0  0  0  0  0  0  0  0
    1.3741    3.1894    7.4627 H   0  0  0  0  0  0  0  0  0  0  0  0
    0.7366    2.1936    8.7609 H   0  0  0  0  0  0  0  0  0  0  0  0
    3.0980    1.4979    7.7620 H   0  0  0  0  0  0  0  0  0  0  0  0
    1.8753    0.2665    8.0196 H   0  0  0  0  0  0  0  0  0  0  0  0
    2.5044    2.2141    4.1917 H   0  0  0  0  0  0  0  0  0  0  0  0
    3.9104    1.8600    5.1841 H   0  0  0  0  0  0  0  0  0  0  0  0
    2.6944    2.9719    5.7149 H   0  0  0  0  0  0  0  0  0  0  0  0
    0.4697    1.5916    4.6935 H   0  0  0  0  0  0  0  0  0  0  0  0
   -0.1709   -0.9732    6.1936 H   0  0  0  0  0  0  0  0  0  0  0  0
   -1.2084   -0.1267    5.0769 H   0  0  0  0  0  0  0  0  0  0  0  0
   -0.0963   -1.8431    3.8140 H   0  0  0  0  0  0  0  0  0  0  0  0
    0.4319   -0.2942    3.3050 H   0  0  0  0  0  0  0  0  0  0  0  0
    2.8194   -3.3550    5.1731 H   0  0  0  0  0  0  0  0  0  0  0  0
    1.2840   -3.5670    4.3524 H   0  0  0  0  0  0  0  0  0  0  0  0
    1.3148   -2.9153    5.9379 H   0  0  0  0  0  0  0  0  0  0  0  0
    2.2808   -1.1096    6.4735 H   0  0  0  0  0  0  0  0  0  0  0  0
    4.5550    0.0358    6.3907 H   0  0  0  0  0  0  0  0  0  0  0  0
    4.3720   -1.6861    6.1944 H   0  0  0  0  0  0  0  0  0  0  0  0
    4.4317   -2.6945    3.9112 H   0  0  0  0  0  0  0  0  0  0  0  0
    7.0364   -0.7310    2.2515 H   0  0  0  0  0  0  0  0  0  0  0  0
    9.6402   -1.1444   -0.1160 H   0  0  0  0  0  0  0  0  0  0  0  0
    5.0598   -1.8839   -0.7315 H   0  0  0  0  0  0  0  0  0  0  0  0
    6.3261   -3.4688   -2.0154 H   0  0  0  0  0  0  0  0  0  0  0  0
    4.9015   -4.3019   -1.4157 H   0  0  0  0  0  0  0  0  0  0  0  0
    6.4689   -4.5698   -0.6518 H   0  0  0  0  0  0  0  0  0  0  0  0
    4.5879   -5.1708    0.9555 H   0  0  0  0  0  0  0  0  0  0  0  0
    4.4599   -4.5768    2.6000 H   0  0  0  0  0  0  0  0  0  0  0  0
    6.0172   -4.5902    1.8061 H   0  0  0  0  0  0  0  0  0  0  0  0
    3.0623   -1.8553    0.1960 H   0  0  0  0  0  0  0  0  0  0  0  0
    2.8245   -3.5659    0.2123 H   0  0  0  0  0  0  0  0  0  0  0  0
    1.3473   -2.4149    1.8266 H   0  0  0  0  0  0  0  0  0  0  0  0
    2.4088   -3.5770    2.5756 H   0  0  0  0  0  0  0  0  0  0  0  0
    3.5059   -0.0735    1.4668 H   0  0  0  0  0  0  0  0  0  0  0  0
    2.9340    0.7194    2.8845 H   0  0  0  0  0  0  0  0  0  0  0  0
    1.8010   -0.0138    1.7574 H   0  0  0  0  0  0  0  0  0  0  0  0
  1  2  2  0
  1 32  1  0
  1 33  1  0
  2  3  1  0
  2  4  1  0
  3 34  1  0
  3 35  1  0
  3 36  1  0
  4  9  1  0
  4  5  1  0
  4 37  1  1
  5  6  1  0
  5 38  1  0
  5 39  1  0
  6  7  1  0
  6 40  1  0
  6 41  1  0
  7 14  1  0
  7  8  1  6
  7  9  1  0
  8 42  1  0
  8 43  1  0
  8 44  1  0
  9 10  1  0
  9 45  1  6
 10 11  1  0
 10 46  1  0
 10 47  1  0
 11 12  1  0
 11 48  1  0
 11 49  1  0
 12 30  1  0
 12 13  1  1
 12 14  1  0
 13 50  1  0
 13 51  1  0
 13 52  1  0
 14 15  1  0
 14 53  1  1
 15 16  1  0
 15 54  1  0
 15 55  1  0
 16 17  2  0
 16 18  1  0
 18 30  1  0
 18 19  1  0
 18 56  1  1
 19 26  1  0
 19 20  2  0
 20 21  1  0
 20 57  1  0
 21 22  2  3
 21 24  1  0
 22 23  1  0
 23 58  1  0
 24 25  1  0
 24 26  1  0
 24 59  1  6
 25 60  1  0
 25 61  1  0
 25 62  1  0
 26 27  1  1
 26 28  1  0
 27 63  1  0
 27 64  1  0
 27 65  1  0
 28 29  1  0
 28 66  1  0
 28 67  1  0
 29 30  1  0
 29 68  1  0
 29 69  1  0
 30 31  1  6
 31 70  1  0
 31 71  1  0
 31 72  1  0
M  END
>  <i_m_ct_stereo_status>  (306) 
1

>  <s_m_source_file>  (306) 
/var/tmp/pbs.5076255.sched01/tmpgyl_4d9e/126kfdajayx.sdf

>  <i_m_source_file_index>  (306) 
33

>  <i_lp_mmshare_version>  (306) 
48012

>  <i_f3d_flags>  (306) 
0

>  <s_epik_input>  (306) 
W0NIMl09QyhbQ0gzXSlbQ0BIXShbQ0gyXVtDSDJdMSlbQ0BASF0oW0NAQF0xMltDSDNdKVtDSDJdW0NIMl1bQ0BdMyhbQ0gzXSlbQ0BIXTJbQ0gyXUMoPU8pW0NAQEhdNEM9NVtDQF0oW0NIM10pKFtDQEhdKFtDSDNdKUMoXFtDSF01KT1OXFtPSF0pW0NIMl1bQ0gyXVtDQEBdMzRbQ0gzXQ==

>  <s_epik_cmdline>  (306) 
J2VwaWtfcHl0aG9uJywgJy1waHQnLCAnMi4wJywgJy1waCcsICc3LjAnLCAnLXRuJywgJzgnLCAnLW1hJywgJzIwMCcsICctaW1hZScsICc8aW5maWxlLm1hZT4nLCAnLW9tYWUnLCAnPG91dGZpbGUubWFlPic=

>  <r_lp_tautomer_probability>  (306) 
1

>  <r_epik_Ionization_Penalty>  (306) 
3.06194e-06

>  <r_epik_Ionization_Penalty_Charging>  (306) 
0

>  <r_epik_Ionization_Penalty_Neutral>  (306) 
3.06194e-06

>  <r_epik_State_Penalty>  (306) 
-0

>  <r_epik_Charging_Adjusted_Penalty>  (306) 
0

>  <i_epik_Tot_Q>  (306) 
0

>  <i_epik_Tot_abs_Q>  (306) 
0

>  <s_epik_Chemistry_Notes>  (306) 
This compound has an imine and may undergo hydrolysis.

>  <s_lp_Force_Field>  (306) 
OPLS3e

>  <r_lp_Energy>  (306) 
68.6297

>  <b_lp_Chiralities_Consistent>  (306) 
1

>  <s_lp_Variant>  (306) 
107:0-1

>  <s_i_glide_gridfile>  (306) 
pfpi4k_grid

>  <i_i_glide_lignum>  (306) 
33

>  <i_i_glide_rotatable_bonds>  (306) 
2

>  <r_i_docking_score>  (306) 
-3.14166

>  <r_i_glide_ligand_efficiency>  (306) 
-0.101344

>  <r_i_glide_ligand_efficiency_sa>  (306) 
-0.31836

>  <r_i_glide_ligand_efficiency_ln>  (306) 
-0.708542

>  <r_i_glide_gscore>  (306) 
-3.14166

>  <r_i_glide_lipo>  (306) 
-0.375389

>  <r_i_glide_hbond>  (306) 
-0.16

>  <r_i_glide_metal>  (306) 
-0

>  <r_i_glide_rewards>  (306) 
-0.647796

>  <r_i_glide_evdw>  (306) 
-23.4319

>  <r_i_glide_ecoul>  (306) 
-5.36944

>  <r_i_glide_erotb>  (306) 
0.154626

>  <r_i_glide_esite>  (306) 
-0.136095

>  <r_i_glide_emodel>  (306) 
-34.149

>  <r_i_glide_energy>  (306) 
-28.8013

>  <r_i_glide_einternal>  (306) 
0.765775

>  <r_i_glide_intrahb_reward>  (306) 
-0

>  <i_i_glide_confnum>  (306) 
3

>  <i_i_glide_posenum>  (306) 
21

>  <r_i_glide_eff_state_penalty>  (306) 
0

>  <ligand_id>  (306) 
107

>  <original_smiles>  (306) 
C=C(C)C1CCC2(C)C1CCC1(C)C2CC(=O)C2C3=CC(=NO)C(C)C3(C)CCC21C

>  <smiles>  (306) 
[H]ON=C1C([H])=C2C3([H])C(=O)C([H])([H])C4([H])C5(C([H])([H])[H])C([H])([H])C([H])([H])C([H])(C(=C([H])[H])C([H])([H])[H])C5([H])C([H])([H])C([H])([H])C4(C([H])([H])[H])C3(C([H])([H])[H])C([H])([H])C([H])([H])C2(C([H])([H])[H])C1([H])C([H])([H])[H]

$$$$
107:0:2
     RDKit          3D

 72 76  0  0  1  0  0  0  0  0999 V2000
    0.9101  -11.2081    4.8211 C   0  0  0  0  0  0  0  0  0  0  0  0
    1.8126  -10.2183    4.7168 C   0  0  0  0  0  0  0  0  0  0  0  0
    2.7926  -10.2029    3.5547 C   0  0  0  0  0  0  0  0  0  0  0  0
    1.9555   -9.0827    5.7447 C   0  0  2  0  0  0  0  0  0  0  0  0
    0.8336   -9.0085    6.7901 C   0  0  0  0  0  0  0  0  0  0  0  0
    0.8176   -7.5520    7.2356 C   0  0  0  0  0  0  0  0  0  0  0  0
    1.0875   -6.7154    5.9563 C   0  0  2  0  0  0  0  0  0  0  0  0
   -0.2592   -6.5897    5.1949 C   0  0  0  0  0  0  0  0  0  0  0  0
    2.0489   -7.6476    5.1571 C   0  0  1  0  0  0  0  0  0  0  0  0
    3.4952   -7.1179    5.1410 C   0  0  0  0  0  0  0  0  0  0  0  0
    3.5301   -5.7064    4.5468 C   0  0  0  0  0  0  0  0  0  0  0  0
    2.8189   -4.6282    5.4263 C   0  0  2  0  0  0  0  0  0  0  0  0
    3.9246   -4.1002    6.3973 C   0  0  0  0  0  0  0  0  0  0  0  0
    1.7264   -5.3163    6.3557 C   0  0  1  0  0  0  0  0  0  0  0  0
    0.7545   -4.3209    7.0366 C   0  0  0  0  0  0  0  0  0  0  0  0
    0.2553   -3.2186    6.1105 C   0  0  0  0  0  0  0  0  0  0  0  0
   -0.9442   -2.9859    6.0025 O   0  0  0  0  0  0  0  0  0  0  0  0
    1.3801   -2.4420    5.3994 C   0  0  2  0  0  0  0  0  0  0  0  0
    0.9721   -1.1527    4.6439 C   0  0  0  0  0  0  0  0  0  0  0  0
   -0.2218   -0.5402    4.5207 C   0  0  0  0  0  0  0  0  0  0  0  0
   -0.1094    0.6172    3.6177 C   0  0  0  0  0  0  0  0  0  0  0  0
   -0.9768    1.5112    3.3702 N   0  0  0  0  0  0  0  0  0  0  0  0
   -2.1638    1.2840    4.1298 O   0  0  0  0  0  0  0  0  0  0  0  0
    1.2603    0.5496    2.9782 C   0  0  1  0  0  0  0  0  0  0  0  0
    1.9123    1.8995    2.6327 C   0  0  0  0  0  0  0  0  0  0  0  0
    2.0701   -0.3988    3.9121 C   0  0  1  0  0  0  0  0  0  0  0  0
    2.8975    0.3776    4.9681 C   0  0  0  0  0  0  0  0  0  0  0  0
    2.9620   -1.3556    3.0973 C   0  0  0  0  0  0  0  0  0  0  0  0
    3.4252   -2.5760    3.9127 C   0  0  0  0  0  0  0  0  0  0  0  0
    2.2624   -3.4116    4.5377 C   0  0  1  0  0  0  0  0  0  0  0  0
    1.4098   -3.9146    3.3430 C   0  0  0  0  0  0  0  0  0  0  0  0
    0.8510  -11.9906    4.0772 H   0  0  0  0  0  0  0  0  0  0  0  0
    0.2157  -11.2813    5.6489 H   0  0  0  0  0  0  0  0  0  0  0  0
    3.8147  -10.2417    3.9291 H   0  0  0  0  0  0  0  0  0  0  0  0
    2.6795   -9.3126    2.9379 H   0  0  0  0  0  0  0  0  0  0  0  0
    2.6422  -11.0684    2.9084 H   0  0  0  0  0  0  0  0  0  0  0  0
    2.8823   -9.2903    6.2832 H   0  0  0  0  0  0  0  0  0  0  0  0
   -0.1396   -9.2431    6.3584 H   0  0  0  0  0  0  0  0  0  0  0  0
    1.0051   -9.7029    7.6137 H   0  0  0  0  0  0  0  0  0  0  0  0
   -0.1234   -7.2939    7.7208 H   0  0  0  0  0  0  0  0  0  0  0  0
    1.6067   -7.4380    7.9798 H   0  0  0  0  0  0  0  0  0  0  0  0
   -0.1365   -6.4372    4.1276 H   0  0  0  0  0  0  0  0  0  0  0  0
   -0.8996   -5.8024    5.5843 H   0  0  0  0  0  0  0  0  0  0  0  0
   -0.8468   -7.5019    5.2644 H   0  0  0  0  0  0  0  0  0  0  0  0
    1.7121   -7.6708    4.1238 H   0  0  0  0  0  0  0  0  0  0  0  0
    3.9387   -7.1264    6.1362 H   0  0  0  0  0  0  0  0  0  0  0  0
    4.1177   -7.7691    4.5289 H   0  0  0  0  0  0  0  0  0  0  0  0
    4.5717   -5.4296    4.3759 H   0  0  0  0  0  0  0  0  0  0  0  0
    3.1132   -5.7977    3.5517 H   0  0  0  0  0  0  0  0  0  0  0  0
    3.5703   -3.2913    7.0306 H   0  0  0  0  0  0  0  0  0  0  0  0
    4.8175   -3.7443    5.8860 H   0  0  0  0  0  0  0  0  0  0  0  0
    4.2996   -4.8754    7.0661 H   0  0  0  0  0  0  0  0  0  0  0  0
    2.3237   -5.6230    7.2137 H   0  0  0  0  0  0  0  0  0  0  0  0
   -0.0827   -4.8461    7.4852 H   0  0  0  0  0  0  0  0  0  0  0  0
    1.2775   -3.8219    7.8515 H   0  0  0  0  0  0  0  0  0  0  0  0
    2.0028   -2.0690    6.2074 H   0  0  0  0  0  0  0  0  0  0  0  0
   -1.1839   -0.8109    4.9288 H   0  0  0  0  0  0  0  0  0  0  0  0
   -2.8089    1.1277    3.4446 H   0  0  0  0  0  0  0  0  0  0  0  0
    1.0898    0.0414    2.0309 H   0  0  0  0  0  0  0  0  0  0  0  0
    1.3379    2.4186    1.8650 H   0  0  0  0  0  0  0  0  0  0  0  0
    2.9165    1.7512    2.2303 H   0  0  0  0  0  0  0  0  0  0  0  0
    1.9857    2.5638    3.4901 H   0  0  0  0  0  0  0  0  0  0  0  0
    3.7111    0.9396    4.5093 H   0  0  0  0  0  0  0  0  0  0  0  0
    3.3414   -0.2853    5.7113 H   0  0  0  0  0  0  0  0  0  0  0  0
    2.2726    1.0859    5.5185 H   0  0  0  0  0  0  0  0  0  0  0  0
    2.4408   -1.6946    2.2018 H   0  0  0  0  0  0  0  0  0  0  0  0
    3.8273   -0.8060    2.7317 H   0  0  0  0  0  0  0  0  0  0  0  0
    4.0525   -3.2055    3.2796 H   0  0  0  0  0  0  0  0  0  0  0  0
    4.0811   -2.1806    4.6825 H   0  0  0  0  0  0  0  0  0  0  0  0
    0.8520   -3.1014    2.8826 H   0  0  0  0  0  0  0  0  0  0  0  0
    0.6631   -4.6286    3.6557 H   0  0  0  0  0  0  0  0  0  0  0  0
    1.9993   -4.3589    2.5381 H   0  0  0  0  0  0  0  0  0  0  0  0
  1  2  2  0
  1 32  1  0
  1 33  1  0
  2  3  1  0
  2  4  1  0
  3 34  1  0
  3 35  1  0
  3 36  1  0
  4  9  1  0
  4  5  1  0
  4 37  1  1
  5  6  1  0
  5 38  1  0
  5 39  1  0
  6  7  1  0
  6 40  1  0
  6 41  1  0
  7 14  1  0
  7  8  1  6
  7  9  1  0
  8 42  1  0
  8 43  1  0
  8 44  1  0
  9 10  1  0
  9 45  1  6
 10 11  1  0
 10 46  1  0
 10 47  1  0
 11 12  1  0
 11 48  1  0
 11 49  1  0
 12 30  1  0
 12 13  1  1
 12 14  1  0
 13 50  1  0
 13 51  1  0
 13 52  1  0
 14 15  1  0
 14 53  1  1
 15 16  1  0
 15 54  1  0
 15 55  1  0
 16 17  2  0
 16 18  1  0
 18 30  1  0
 18 19  1  0
 18 56  1  1
 19 26  1  0
 19 20  2  0
 20 21  1  0
 20 57  1  0
 21 22  2  3
 21 24  1  0
 22 23  1  0
 23 58  1  0
 24 25  1  0
 24 26  1  0
 24 59  1  6
 25 60  1  0
 25 61  1  0
 25 62  1  0
 26 27  1  1
 26 28  1  0
 27 63  1  0
 27 64  1  0
 27 65  1  0
 28 29  1  0
 28 66  1  0
 28 67  1  0
 29 30  1  0
 29 68  1  0
 29 69  1  0
 30 31  1  6
 31 70  1  0
 31 71  1  0
 31 72  1  0
M  END
>  <i_m_ct_stereo_status>  (307) 
1

>  <s_m_source_file>  (307) 
/var/tmp/pbs.5076255.sched01/tmpgyl_4d9e/126kfdajayx.sdf

>  <i_m_source_file_index>  (307) 
33

>  <i_lp_mmshare_version>  (307) 
48012

>  <i_f3d_flags>  (307) 
0

>  <s_epik_input>  (307) 
W0NIMl09QyhbQ0gzXSlbQ0BIXShbQ0gyXVtDSDJdMSlbQ0BASF0oW0NAQF0xMltDSDNdKVtDSDJdW0NIMl1bQ0BdMyhbQ0gzXSlbQ0BIXTJbQ0gyXUMoPU8pW0NAQEhdNEM9NVtDQF0oW0NIM10pKFtDQEhdKFtDSDNdKUMoXFtDSF01KT1OXFtPSF0pW0NIMl1bQ0gyXVtDQEBdMzRbQ0gzXQ==

>  <s_epik_cmdline>  (307) 
J2VwaWtfcHl0aG9uJywgJy1waHQnLCAnMi4wJywgJy1waCcsICc3LjAnLCAnLXRuJywgJzgnLCAnLW1hJywgJzIwMCcsICctaW1hZScsICc8aW5maWxlLm1hZT4nLCAnLW9tYWUnLCAnPG91dGZpbGUubWFlPic=

>  <r_lp_tautomer_probability>  (307) 
1

>  <r_epik_Ionization_Penalty>  (307) 
3.06194e-06

>  <r_epik_Ionization_Penalty_Charging>  (307) 
0

>  <r_epik_Ionization_Penalty_Neutral>  (307) 
3.06194e-06

>  <r_epik_State_Penalty>  (307) 
-0

>  <r_epik_Charging_Adjusted_Penalty>  (307) 
0

>  <i_epik_Tot_Q>  (307) 
0

>  <i_epik_Tot_abs_Q>  (307) 
0

>  <s_epik_Chemistry_Notes>  (307) 
This compound has an imine and may undergo hydrolysis.

>  <s_lp_Force_Field>  (307) 
OPLS3e

>  <r_lp_Energy>  (307) 
68.6297

>  <b_lp_Chiralities_Consistent>  (307) 
1

>  <s_lp_Variant>  (307) 
107:0-1

>  <s_i_glide_gridfile>  (307) 
pfpi4k_grid

>  <i_i_glide_lignum>  (307) 
33

>  <i_i_glide_rotatable_bonds>  (307) 
2

>  <r_i_docking_score>  (307) 
-2.79447

>  <r_i_glide_ligand_efficiency>  (307) 
-0.0901441

>  <r_i_glide_ligand_efficiency_sa>  (307) 
-0.283177

>  <r_i_glide_ligand_efficiency_ln>  (307) 
-0.630238

>  <r_i_glide_gscore>  (307) 
-2.79447

>  <r_i_glide_lipo>  (307) 
0

>  <r_i_glide_hbond>  (307) 
-0.32

>  <r_i_glide_metal>  (307) 
-0

>  <r_i_glide_rewards>  (307) 
-0.5207

>  <r_i_glide_evdw>  (307) 
-24.2687

>  <r_i_glide_ecoul>  (307) 
-5.82039

>  <r_i_glide_erotb>  (307) 
0.220894

>  <r_i_glide_esite>  (307) 
-0.088169

>  <r_i_glide_emodel>  (307) 
-33.5588

>  <r_i_glide_energy>  (307) 
-30.0891

>  <r_i_glide_einternal>  (307) 
2.22976

>  <r_i_glide_intrahb_reward>  (307) 
-0

>  <i_i_glide_confnum>  (307) 
6

>  <i_i_glide_posenum>  (307) 
25

>  <r_i_glide_eff_state_penalty>  (307) 
0

>  <ligand_id>  (307) 
107

>  <original_smiles>  (307) 
C=C(C)C1CCC2(C)C1CCC1(C)C2CC(=O)C2C3=CC(=NO)C(C)C3(C)CCC21C

>  <smiles>  (307) 
[H]ON=C1C([H])=C2C3([H])C(=O)C([H])([H])C4([H])C5(C([H])([H])[H])C([H])([H])C([H])([H])C([H])(C(=C([H])[H])C([H])([H])[H])C5([H])C([H])([H])C([H])([H])C4(C([H])([H])[H])C3(C([H])([H])[H])C([H])([H])C([H])([H])C2(C([H])([H])[H])C1([H])C([H])([H])[H]

$$$$
107:1:0
     RDKit          3D

 72 76  0  0  1  0  0  0  0  0999 V2000
    4.2903  -12.3031    3.1620 C   0  0  0  0  0  0  0  0  0  0  0  0
    4.5100  -10.9822    3.3012 C   0  0  0  0  0  0  0  0  0  0  0  0
    5.6447  -10.3181    2.5306 C   0  0  0  0  0  0  0  0  0  0  0  0
    3.6981  -10.0663    4.2270 C   0  0  2  0  0  0  0  0  0  0  0  0
    2.9965  -10.7429    5.4238 C   0  0  0  0  0  0  0  0  0  0  0  0
    1.7264   -9.9264    5.7079 C   0  0  0  0  0  0  0  0  0  0  0  0
    1.6660   -8.7563    4.6901 C   0  0  2  0  0  0  0  0  0  0  0  0
    0.1990   -8.6116    4.2077 C   0  0  0  0  0  0  0  0  0  0  0  0
    2.5474   -9.2920    3.5389 C   0  0  1  0  0  0  0  0  0  0  0  0
    2.9138   -8.1719    2.5589 C   0  0  0  0  0  0  0  0  0  0  0  0
    3.7447   -7.0716    3.2388 C   0  0  0  0  0  0  0  0  0  0  0  0
    3.1064   -6.3988    4.5014 C   0  0  2  0  0  0  0  0  0  0  0  0
    4.3411   -6.0060    5.3710 C   0  0  0  0  0  0  0  0  0  0  0  0
    2.2948   -7.4651    5.3655 C   0  0  1  0  0  0  0  0  0  0  0  0
    1.4010   -6.8414    6.4644 C   0  0  0  0  0  0  0  0  0  0  0  0
    0.6116   -5.6356    5.9694 C   0  0  0  0  0  0  0  0  0  0  0  0
   -0.6036   -5.5971    6.0441 O   0  0  0  0  0  0  0  0  0  0  0  0
    1.4964   -4.5231    5.3846 C   0  0  2  0  0  0  0  0  0  0  0  0
    0.8169   -3.1597    5.1441 C   0  0  0  0  0  0  0  0  0  0  0  0
   -0.4423   -2.7468    5.3633 C   0  0  0  0  0  0  0  0  0  0  0  0
   -0.6606   -1.3989    4.8779 C   0  0  0  0  0  0  0  0  0  0  0  0
   -1.7685   -0.7871    5.0398 N   0  0  0  0  0  0  0  0  0  0  0  0
   -1.7583    0.4748    4.3974 O   0  0  0  0  0  0  0  0  0  0  0  0
    0.6130   -0.9862    4.1098 C   0  0  1  0  0  0  0  0  0  0  0  0
    1.0816    0.4791    4.1822 C   0  0  0  0  0  0  0  0  0  0  0  0
    1.6719   -2.0396    4.5676 C   0  0  1  0  0  0  0  0  0  0  0  0
    2.5787   -1.5147    5.7111 C   0  0  0  0  0  0  0  0  0  0  0  0
    2.5228   -2.5561    3.3805 C   0  0  0  0  0  0  0  0  0  0  0  0
    3.2344   -3.8904    3.6866 C   0  0  0  0  0  0  0  0  0  0  0  0
    2.2876   -5.0553    4.1406 C   0  0  1  0  0  0  0  0  0  0  0  0
    1.3038   -5.3097    2.9820 C   0  0  0  0  0  0  0  0  0  0  0  0
    4.9061  -12.8847    2.4938 H   0  0  0  0  0  0  0  0  0  0  0  0
    3.5152  -12.8447    3.6797 H   0  0  0  0  0  0  0  0  0  0  0  0
    6.3582   -9.8602    3.2122 H   0  0  0  0  0  0  0  0  0  0  0  0
    5.3014   -9.5491    1.8425 H   0  0  0  0  0  0  0  0  0  0  0  0
    6.1801  -11.0499    1.9281 H   0  0  0  0  0  0  0  0  0  0  0  0
    4.4056   -9.3659    4.6678 H   0  0  0  0  0  0  0  0  0  0  0  0
    2.6616  -11.7630    5.2346 H   0  0  0  0  0  0  0  0  0  0  0  0
    3.6503  -10.7942    6.2978 H   0  0  0  0  0  0  0  0  0  0  0  0
    0.8761  -10.6011    5.5893 H   0  0  0  0  0  0  0  0  0  0  0  0
    1.6931   -9.6078    6.7520 H   0  0  0  0  0  0  0  0  0  0  0  0
    0.1124   -8.0956    3.2588 H   0  0  0  0  0  0  0  0  0  0  0  0
   -0.4479   -8.1242    4.9355 H   0  0  0  0  0  0  0  0  0  0  0  0
   -0.2443   -9.5899    4.0154 H   0  0  0  0  0  0  0  0  0  0  0  0
    1.9675  -10.0354    2.9889 H   0  0  0  0  0  0  0  0  0  0  0  0
    3.4437   -8.5759    1.6984 H   0  0  0  0  0  0  0  0  0  0  0  0
    2.0096   -7.7535    2.1208 H   0  0  0  0  0  0  0  0  0  0  0  0
    4.7131   -7.5071    3.5012 H   0  0  0  0  0  0  0  0  0  0  0  0
    3.9934   -6.3268    2.4919 H   0  0  0  0  0  0  0  0  0  0  0  0
    4.0743   -5.4258    6.2549 H   0  0  0  0  0  0  0  0  0  0  0  0
    5.0838   -5.4412    4.8056 H   0  0  0  0  0  0  0  0  0  0  0  0
    4.8903   -6.8836    5.7236 H   0  0  0  0  0  0  0  0  0  0  0  0
    3.0716   -7.9323    5.9759 H   0  0  0  0  0  0  0  0  0  0  0  0
    0.7186   -7.5753    6.8859 H   0  0  0  0  0  0  0  0  0  0  0  0
    2.0262   -6.4952    7.2850 H   0  0  0  0  0  0  0  0  0  0  0  0
    2.2169   -4.3112    6.1660 H   0  0  0  0  0  0  0  0  0  0  0  0
   -1.2731   -3.3068    5.7829 H   0  0  0  0  0  0  0  0  0  0  0  0
   -2.6285    0.5334    4.0177 H   0  0  0  0  0  0  0  0  0  0  0  0
    0.3745   -1.1758    3.0633 H   0  0  0  0  0  0  0  0  0  0  0  0
    0.4574    1.1276    3.5717 H   0  0  0  0  0  0  0  0  0  0  0  0
    2.0876    0.5720    3.7721 H   0  0  0  0  0  0  0  0  0  0  0  0
    1.0931    0.8708    5.1947 H   0  0  0  0  0  0  0  0  0  0  0  0
    3.2535   -0.7274    5.3753 H   0  0  0  0  0  0  0  0  0  0  0  0
    3.1994   -2.3006    6.1397 H   0  0  0  0  0  0  0  0  0  0  0  0
    1.9811   -1.1113    6.5338 H   0  0  0  0  0  0  0  0  0  0  0  0
    1.9077   -2.6706    2.4919 H   0  0  0  0  0  0  0  0  0  0  0  0
    3.2609   -1.7985    3.1192 H   0  0  0  0  0  0  0  0  0  0  0  0
    3.8168   -4.1732    2.8089 H   0  0  0  0  0  0  0  0  0  0  0  0
    3.9593   -3.6571    4.4608 H   0  0  0  0  0  0  0  0  0  0  0  0
    0.6594   -4.4498    2.8180 H   0  0  0  0  0  0  0  0  0  0  0  0
    0.6246   -6.1213    3.1912 H   0  0  0  0  0  0  0  0  0  0  0  0
    1.8122   -5.5135    2.0388 H   0  0  0  0  0  0  0  0  0  0  0  0
  1  2  2  0
  1 32  1  0
  1 33  1  0
  2  3  1  0
  2  4  1  0
  3 34  1  0
  3 35  1  0
  3 36  1  0
  4  9  1  0
  4  5  1  0
  4 37  1  1
  5  6  1  0
  5 38  1  0
  5 39  1  0
  6  7  1  0
  6 40  1  0
  6 41  1  0
  7 14  1  0
  7  8  1  6
  7  9  1  0
  8 42  1  0
  8 43  1  0
  8 44  1  0
  9 10  1  0
  9 45  1  6
 10 11  1  0
 10 46  1  0
 10 47  1  0
 11 12  1  0
 11 48  1  0
 11 49  1  0
 12 30  1  0
 12 13  1  1
 12 14  1  0
 13 50  1  0
 13 51  1  0
 13 52  1  0
 14 15  1  0
 14 53  1  1
 15 16  1  0
 15 54  1  0
 15 55  1  0
 16 17  2  0
 16 18  1  0
 18 30  1  0
 18 19  1  0
 18 56  1  1
 19 26  1  0
 19 20  2  0
 20 21  1  0
 20 57  1  0
 21 22  2  3
 21 24  1  0
 22 23  1  0
 23 58  1  0
 24 25  1  0
 24 26  1  0
 24 59  1  6
 25 60  1  0
 25 61  1  0
 25 62  1  0
 26 27  1  1
 26 28  1  0
 27 63  1  0
 27 64  1  0
 27 65  1  0
 28 29  1  0
 28 66  1  0
 28 67  1  0
 29 30  1  0
 29 68  1  0
 29 69  1  0
 30 31  1  6
 31 70  1  0
 31 71  1  0
 31 72  1  0
M  END
>  <i_m_ct_stereo_status>  (308) 
1

>  <s_m_source_file>  (308) 
/var/tmp/pbs.5076255.sched01/tmpgyl_4d9e/126kfdajayx.sdf

>  <i_m_source_file_index>  (308) 
34

>  <i_lp_mmshare_version>  (308) 
48012

>  <i_f3d_flags>  (308) 
0

>  <s_epik_input>  (308) 
W0NIMl09QyhbQ0gzXSlbQ0BIXShbQ0gyXVtDSDJdMSlbQ0BASF0oW0NAQF0xMltDSDNdKVtDSDJdW0NIMl1bQ0BdMyhbQ0gzXSlbQ0BIXTJbQ0gyXUMoPU8pW0NAQEhdNEM9NVtDQF0oW0NIM10pKFtDQEhdKFtDSDNdKUMoXFtDSF01KT1OXFtPSF0pW0NIMl1bQ0gyXVtDQEBdMzRbQ0gzXQ==

>  <s_epik_cmdline>  (308) 
J2VwaWtfcHl0aG9uJywgJy1waHQnLCAnMi4wJywgJy1waCcsICc3LjAnLCAnLXRuJywgJzgnLCAnLW1hJywgJzIwMCcsICctaW1hZScsICc8aW5maWxlLm1hZT4nLCAnLW9tYWUnLCAnPG91dGZpbGUubWFlPic=

>  <r_lp_tautomer_probability>  (308) 
1

>  <r_epik_Ionization_Penalty>  (308) 
3.06194e-06

>  <r_epik_Ionization_Penalty_Charging>  (308) 
0

>  <r_epik_Ionization_Penalty_Neutral>  (308) 
3.06194e-06

>  <r_epik_State_Penalty>  (308) 
-0

>  <r_epik_Charging_Adjusted_Penalty>  (308) 
0

>  <i_epik_Tot_Q>  (308) 
0

>  <i_epik_Tot_abs_Q>  (308) 
0

>  <s_epik_Chemistry_Notes>  (308) 
This compound has an imine and may undergo hydrolysis.

>  <s_lp_Force_Field>  (308) 
OPLS3e

>  <r_lp_Energy>  (308) 
70.1087

>  <b_lp_Chiralities_Consistent>  (308) 
1

>  <s_lp_Variant>  (308) 
107:0-2

>  <s_i_glide_gridfile>  (308) 
pfpi4k_grid

>  <i_i_glide_lignum>  (308) 
34

>  <i_i_glide_rotatable_bonds>  (308) 
2

>  <r_i_docking_score>  (308) 
-2.74102

>  <r_i_glide_ligand_efficiency>  (308) 
-0.08842

>  <r_i_glide_ligand_efficiency_sa>  (308) 
-0.277761

>  <r_i_glide_ligand_efficiency_ln>  (308) 
-0.618184

>  <r_i_glide_gscore>  (308) 
-2.74102

>  <r_i_glide_lipo>  (308) 
-0.000665876

>  <r_i_glide_hbond>  (308) 
-0.32

>  <r_i_glide_metal>  (308) 
-0

>  <r_i_glide_rewards>  (308) 
-0.5207

>  <r_i_glide_evdw>  (308) 
-24.9781

>  <r_i_glide_ecoul>  (308) 
-4.97905

>  <r_i_glide_erotb>  (308) 
0.220894

>  <r_i_glide_esite>  (308) 
-0.124785

>  <r_i_glide_emodel>  (308) 
-33.2367

>  <r_i_glide_energy>  (308) 
-29.9571

>  <r_i_glide_einternal>  (308) 
2.55695

>  <r_i_glide_intrahb_reward>  (308) 
-0

>  <i_i_glide_confnum>  (308) 
3

>  <i_i_glide_posenum>  (308) 
10

>  <r_i_glide_eff_state_penalty>  (308) 
0

>  <ligand_id>  (308) 
107

>  <original_smiles>  (308) 
C=C(C)C1CCC2(C)C1CCC1(C)C2CC(=O)C2C3=CC(=NO)C(C)C3(C)CCC21C

>  <smiles>  (308) 
[H]ON=C1C([H])=C2C3([H])C(=O)C([H])([H])C4([H])C5(C([H])([H])[H])C([H])([H])C([H])([H])C([H])(C(=C([H])[H])C([H])([H])[H])C5([H])C([H])([H])C([H])([H])C4(C([H])([H])[H])C3(C([H])([H])[H])C([H])([H])C([H])([H])C2(C([H])([H])[H])C1([H])C([H])([H])[H]

$$$$
107:1:1
     RDKit          3D

 72 76  0  0  1  0  0  0  0  0999 V2000
   -0.1965  -10.2603    6.9533 C   0  0  0  0  0  0  0  0  0  0  0  0
    0.7077   -9.9356    6.0084 C   0  0  0  0  0  0  0  0  0  0  0  0
    1.0948  -10.9592    4.9405 C   0  0  0  0  0  0  0  0  0  0  0  0
    1.4187   -8.5823    5.9500 C   0  0  2  0  0  0  0  0  0  0  0  0
    1.4195   -7.7527    7.2521 C   0  0  0  0  0  0  0  0  0  0  0  0
    1.4320   -6.2774    6.8307 C   0  0  0  0  0  0  0  0  0  0  0  0
    1.4391   -6.2253    5.2759 C   0  0  2  0  0  0  0  0  0  0  0  0
    0.4715   -5.1048    4.8249 C   0  0  0  0  0  0  0  0  0  0  0  0
    0.8442   -7.5988    4.9042 C   0  0  1  0  0  0  0  0  0  0  0  0
    1.0546   -7.9240    3.4139 C   0  0  0  0  0  0  0  0  0  0  0  0
    2.5499   -8.0146    3.0680 C   0  0  0  0  0  0  0  0  0  0  0  0
    3.4200   -6.7584    3.4079 C   0  0  2  0  0  0  0  0  0  0  0  0
    4.8299   -7.3587    3.7198 C   0  0  0  0  0  0  0  0  0  0  0  0
    2.9354   -6.0820    4.7737 C   0  0  1  0  0  0  0  0  0  0  0  0
    3.5421   -4.6787    5.0331 C   0  0  0  0  0  0  0  0  0  0  0  0
    3.5238   -3.7940    3.7979 C   0  0  0  0  0  0  0  0  0  0  0  0
    2.9513   -2.7087    3.8025 O   0  0  0  0  0  0  0  0  0  0  0  0
    4.2502   -4.4101    2.5944 C   0  0  2  0  0  0  0  0  0  0  0  0
    4.5429   -3.4705    1.4056 C   0  0  0  0  0  0  0  0  0  0  0  0
    4.2634   -2.1750    1.2335 C   0  0  0  0  0  0  0  0  0  0  0  0
    4.6580   -1.7487   -0.1089 C   0  0  0  0  0  0  0  0  0  0  0  0
    4.6103   -0.5330   -0.4321 N   0  0  0  0  0  0  0  0  0  0  0  0
    4.9409   -0.3367   -1.8054 O   0  0  0  0  0  0  0  0  0  0  0  0
    5.0500   -2.9879   -0.9002 C   0  0  1  0  0  0  0  0  0  0  0  0
    6.1907   -2.8639   -1.9292 C   0  0  0  0  0  0  0  0  0  0  0  0
    5.2728   -4.0592    0.2149 C   0  0  1  0  0  0  0  0  0  0  0  0
    6.7688   -4.2112    0.6015 C   0  0  0  0  0  0  0  0  0  0  0  0
    4.6543   -5.4057   -0.1858 C   0  0  0  0  0  0  0  0  0  0  0  0
    4.4326   -6.3506    1.0095 C   0  0  0  0  0  0  0  0  0  0  0  0
    3.5573   -5.7480    2.1626 C   0  0  1  0  0  0  0  0  0  0  0  0
    2.1722   -5.4273    1.5439 C   0  0  0  0  0  0  0  0  0  0  0  0
   -0.6162  -11.2492    6.9287 H   0  0  0  0  0  0  0  0  0  0  0  0
   -0.5255   -9.6052    7.7414 H   0  0  0  0  0  0  0  0  0  0  0  0
    2.1642  -11.1725    4.9984 H   0  0  0  0  0  0  0  0  0  0  0  0
    0.8478  -10.6666    3.9313 H   0  0  0  0  0  0  0  0  0  0  0  0
    0.5801  -11.9070    5.1263 H   0  0  0  0  0  0  0  0  0  0  0  0
    2.4651   -8.7949    5.7369 H   0  0  0  0  0  0  0  0  0  0  0  0
    0.5296   -7.8787    7.8665 H   0  0  0  0  0  0  0  0  0  0  0  0
    2.2730   -8.0060    7.8872 H   0  0  0  0  0  0  0  0  0  0  0  0
    0.5281   -5.8185    7.2348 H   0  0  0  0  0  0  0  0  0  0  0  0
    2.2641   -5.7400    7.2901 H   0  0  0  0  0  0  0  0  0  0  0  0
    0.1436   -5.2298    3.7995 H   0  0  0  0  0  0  0  0  0  0  0  0
    0.8876   -4.1046    4.9366 H   0  0  0  0  0  0  0  0  0  0  0  0
   -0.4512   -5.1262    5.4070 H   0  0  0  0  0  0  0  0  0  0  0  0
   -0.2319   -7.5696    5.0781 H   0  0  0  0  0  0  0  0  0  0  0  0
    0.5492   -8.8390    3.1360 H   0  0  0  0  0  0  0  0  0  0  0  0
    0.5660   -7.1636    2.8002 H   0  0  0  0  0  0  0  0  0  0  0  0
    2.9475   -8.8886    3.5827 H   0  0  0  0  0  0  0  0  0  0  0  0
    2.6456   -8.2791    2.0174 H   0  0  0  0  0  0  0  0  0  0  0  0
    5.5936   -6.5948    3.8777 H   0  0  0  0  0  0  0  0  0  0  0  0
    5.1781   -8.0288    2.9314 H   0  0  0  0  0  0  0  0  0  0  0  0
    4.8203   -7.9867    4.6134 H   0  0  0  0  0  0  0  0  0  0  0  0
    3.4471   -6.6702    5.5346 H   0  0  0  0  0  0  0  0  0  0  0  0
    3.0341   -4.1720    5.8535 H   0  0  0  0  0  0  0  0  0  0  0  0
    4.5843   -4.7862    5.3350 H   0  0  0  0  0  0  0  0  0  0  0  0
    5.2401   -4.6569    2.9739 H   0  0  0  0  0  0  0  0  0  0  0  0
    3.7705   -1.4784    1.8915 H   0  0  0  0  0  0  0  0  0  0  0  0
    5.0115    0.6248   -1.8157 H   0  0  0  0  0  0  0  0  0  0  0  0
    4.1553   -3.2472   -1.4657 H   0  0  0  0  0  0  0  0  0  0  0  0
    5.8475   -2.3375   -2.8176 H   0  0  0  0  0  0  0  0  0  0  0  0
    6.5047   -3.8492   -2.2704 H   0  0  0  0  0  0  0  0  0  0  0  0
    7.0599   -2.3392   -1.5418 H   0  0  0  0  0  0  0  0  0  0  0  0
    7.3576   -4.6551   -0.2010 H   0  0  0  0  0  0  0  0  0  0  0  0
    6.8995   -4.8442    1.4804 H   0  0  0  0  0  0  0  0  0  0  0  0
    7.2167   -3.2440    0.8445 H   0  0  0  0  0  0  0  0  0  0  0  0
    3.7084   -5.2491   -0.7012 H   0  0  0  0  0  0  0  0  0  0  0  0
    5.2971   -5.8791   -0.9229 H   0  0  0  0  0  0  0  0  0  0  0  0
    4.0074   -7.2801    0.6342 H   0  0  0  0  0  0  0  0  0  0  0  0
    5.4296   -6.5995    1.3661 H   0  0  0  0  0  0  0  0  0  0  0  0
    2.2214   -4.6608    0.7711 H   0  0  0  0  0  0  0  0  0  0  0  0
    1.4905   -5.0280    2.2807 H   0  0  0  0  0  0  0  0  0  0  0  0
    1.7154   -6.3025    1.0812 H   0  0  0  0  0  0  0  0  0  0  0  0
  1  2  2  0
  1 32  1  0
  1 33  1  0
  2  3  1  0
  2  4  1  0
  3 34  1  0
  3 35  1  0
  3 36  1  0
  4  9  1  0
  4  5  1  0
  4 37  1  6
  5  6  1  0
  5 38  1  0
  5 39  1  0
  6  7  1  0
  6 40  1  0
  6 41  1  0
  7 14  1  0
  7  8  1  1
  7  9  1  0
  8 42  1  0
  8 43  1  0
  8 44  1  0
  9 10  1  0
  9 45  1  6
 10 11  1  0
 10 46  1  0
 10 47  1  0
 11 12  1  0
 11 48  1  0
 11 49  1  0
 12 30  1  0
 12 13  1  1
 12 14  1  0
 13 50  1  0
 13 51  1  0
 13 52  1  0
 14 15  1  0
 14 53  1  1
 15 16  1  0
 15 54  1  0
 15 55  1  0
 16 17  2  0
 16 18  1  0
 18 30  1  0
 18 19  1  0
 18 56  1  1
 19 26  1  0
 19 20  2  0
 20 21  1  0
 20 57  1  0
 21 22  2  3
 21 24  1  0
 22 23  1  0
 23 58  1  0
 24 25  1  0
 24 26  1  0
 24 59  1  6
 25 60  1  0
 25 61  1  0
 25 62  1  0
 26 27  1  1
 26 28  1  0
 27 63  1  0
 27 64  1  0
 27 65  1  0
 28 29  1  0
 28 66  1  0
 28 67  1  0
 29 30  1  0
 29 68  1  0
 29 69  1  0
 30 31  1  6
 31 70  1  0
 31 71  1  0
 31 72  1  0
M  END
>  <i_m_ct_stereo_status>  (309) 
1

>  <s_m_source_file>  (309) 
/var/tmp/pbs.5076255.sched01/tmpgyl_4d9e/126kfdajayx.sdf

>  <i_m_source_file_index>  (309) 
34

>  <i_lp_mmshare_version>  (309) 
48012

>  <i_f3d_flags>  (309) 
0

>  <s_epik_input>  (309) 
W0NIMl09QyhbQ0gzXSlbQ0BIXShbQ0gyXVtDSDJdMSlbQ0BASF0oW0NAQF0xMltDSDNdKVtDSDJdW0NIMl1bQ0BdMyhbQ0gzXSlbQ0BIXTJbQ0gyXUMoPU8pW0NAQEhdNEM9NVtDQF0oW0NIM10pKFtDQEhdKFtDSDNdKUMoXFtDSF01KT1OXFtPSF0pW0NIMl1bQ0gyXVtDQEBdMzRbQ0gzXQ==

>  <s_epik_cmdline>  (309) 
J2VwaWtfcHl0aG9uJywgJy1waHQnLCAnMi4wJywgJy1waCcsICc3LjAnLCAnLXRuJywgJzgnLCAnLW1hJywgJzIwMCcsICctaW1hZScsICc8aW5maWxlLm1hZT4nLCAnLW9tYWUnLCAnPG91dGZpbGUubWFlPic=

>  <r_lp_tautomer_probability>  (309) 
1

>  <r_epik_Ionization_Penalty>  (309) 
3.06194e-06

>  <r_epik_Ionization_Penalty_Charging>  (309) 
0

>  <r_epik_Ionization_Penalty_Neutral>  (309) 
3.06194e-06

>  <r_epik_State_Penalty>  (309) 
-0

>  <r_epik_Charging_Adjusted_Penalty>  (309) 
0

>  <i_epik_Tot_Q>  (309) 
0

>  <i_epik_Tot_abs_Q>  (309) 
0

>  <s_epik_Chemistry_Notes>  (309) 
This compound has an imine and may undergo hydrolysis.

>  <s_lp_Force_Field>  (309) 
OPLS3e

>  <r_lp_Energy>  (309) 
70.1087

>  <b_lp_Chiralities_Consistent>  (309) 
1

>  <s_lp_Variant>  (309) 
107:0-2

>  <s_i_glide_gridfile>  (309) 
pfpi4k_grid

>  <i_i_glide_lignum>  (309) 
34

>  <i_i_glide_rotatable_bonds>  (309) 
2

>  <r_i_docking_score>  (309) 
-2.5658

>  <r_i_glide_ligand_efficiency>  (309) 
-0.0827677

>  <r_i_glide_ligand_efficiency_sa>  (309) 
-0.260005

>  <r_i_glide_ligand_efficiency_ln>  (309) 
-0.578666

>  <r_i_glide_gscore>  (309) 
-2.5658

>  <r_i_glide_lipo>  (309) 
-0.365843

>  <r_i_glide_hbond>  (309) 
-0.32

>  <r_i_glide_metal>  (309) 
-0

>  <r_i_glide_rewards>  (309) 
-0.5207

>  <r_i_glide_evdw>  (309) 
-24.631

>  <r_i_glide_ecoul>  (309) 
-1.74444

>  <r_i_glide_erotb>  (309) 
0.220894

>  <r_i_glide_esite>  (309) 
-0.0869339

>  <r_i_glide_emodel>  (309) 
-30.0855

>  <r_i_glide_energy>  (309) 
-26.3754

>  <r_i_glide_einternal>  (309) 
1.6294

>  <r_i_glide_intrahb_reward>  (309) 
-0

>  <i_i_glide_confnum>  (309) 
3

>  <i_i_glide_posenum>  (309) 
14

>  <r_i_glide_eff_state_penalty>  (309) 
0

>  <ligand_id>  (309) 
107

>  <original_smiles>  (309) 
C=C(C)C1CCC2(C)C1CCC1(C)C2CC(=O)C2C3=CC(=NO)C(C)C3(C)CCC21C

>  <smiles>  (309) 
[H]ON=C1C([H])=C2C3([H])C(=O)C([H])([H])C4([H])C5(C([H])([H])[H])C([H])([H])C([H])([H])C([H])(C(=C([H])[H])C([H])([H])[H])C5([H])C([H])([H])C([H])([H])C4(C([H])([H])[H])C3(C([H])([H])[H])C([H])([H])C([H])([H])C2(C([H])([H])[H])C1([H])C([H])([H])[H]

$$$$
107:1:2
     RDKit          3D

 72 76  0  0  1  0  0  0  0  0999 V2000
    5.9617  -10.6395    2.9145 C   0  0  0  0  0  0  0  0  0  0  0  0
    4.8105  -10.9413    3.5352 C   0  0  0  0  0  0  0  0  0  0  0  0
    4.1079  -12.2670    3.2774 C   0  0  0  0  0  0  0  0  0  0  0  0
    4.1522   -9.9754    4.5172 C   0  0  2  0  0  0  0  0  0  0  0  0
    3.7899  -10.5760    5.8818 C   0  0  0  0  0  0  0  0  0  0  0  0
    2.5388   -9.8211    6.3528 C   0  0  0  0  0  0  0  0  0  0  0  0
    2.1574   -8.7649    5.2767 C   0  0  2  0  0  0  0  0  0  0  0  0
    0.6153   -8.7704    5.1028 C   0  0  0  0  0  0  0  0  0  0  0  0
    2.8251   -9.3613    4.0254 C   0  0  1  0  0  0  0  0  0  0  0  0
    2.9319   -8.3525    2.8764 C   0  0  0  0  0  0  0  0  0  0  0  0
    3.7493   -7.1134    3.2649 C   0  0  0  0  0  0  0  0  0  0  0  0
    3.3163   -6.3536    4.5660 C   0  0  2  0  0  0  0  0  0  0  0  0
    4.6664   -5.7918    5.1159 C   0  0  0  0  0  0  0  0  0  0  0  0
    2.7964   -7.3729    5.6791 C   0  0  1  0  0  0  0  0  0  0  0  0
    2.0926   -6.6970    6.8829 C   0  0  0  0  0  0  0  0  0  0  0  0
    1.1188   -5.6080    6.4610 C   0  0  0  0  0  0  0  0  0  0  0  0
   -0.0665   -5.6508    6.7836 O   0  0  0  0  0  0  0  0  0  0  0  0
    1.7636   -4.5098    5.6043 C   0  0  2  0  0  0  0  0  0  0  0  0
    0.9347   -3.2248    5.3838 C   0  0  0  0  0  0  0  0  0  0  0  0
   -0.2881   -2.8916    5.8246 C   0  0  0  0  0  0  0  0  0  0  0  0
   -0.6990   -1.5988    5.2850 C   0  0  0  0  0  0  0  0  0  0  0  0
   -1.7763   -1.0333    5.6623 N   0  0  0  0  0  0  0  0  0  0  0  0
   -1.9997    0.1797    4.9630 O   0  0  0  0  0  0  0  0  0  0  0  0
    0.3453   -1.1912    4.2371 C   0  0  1  0  0  0  0  0  0  0  0  0
    0.6851    0.3050    4.0764 C   0  0  0  0  0  0  0  0  0  0  0  0
    1.5633   -2.1205    4.5521 C   0  0  1  0  0  0  0  0  0  0  0  0
    2.6332   -1.4137    5.4268 C   0  0  0  0  0  0  0  0  0  0  0  0
    2.1877   -2.6961    3.2632 C   0  0  0  0  0  0  0  0  0  0  0  0
    3.0562   -3.9438    3.5250 C   0  0  0  0  0  0  0  0  0  0  0  0
    2.3267   -5.1151    4.2707 C   0  0  1  0  0  0  0  0  0  0  0  0
    1.1421   -5.5500    3.3730 C   0  0  0  0  0  0  0  0  0  0  0  0
    6.4090  -11.3308    2.2143 H   0  0  0  0  0  0  0  0  0  0  0  0
    6.4767   -9.7016    3.0838 H   0  0  0  0  0  0  0  0  0  0  0  0
    3.1060  -12.0956    2.8882 H   0  0  0  0  0  0  0  0  0  0  0  0
    4.0375  -12.8865    4.1714 H   0  0  0  0  0  0  0  0  0  0  0  0
    4.6444  -12.8447    2.5256 H   0  0  0  0  0  0  0  0  0  0  0  0
    4.8661   -9.1734    4.7129 H   0  0  0  0  0  0  0  0  0  0  0  0
    3.5237  -11.6308    5.8248 H   0  0  0  0  0  0  0  0  0  0  0  0
    4.6154  -10.4946    6.5896 H   0  0  0  0  0  0  0  0  0  0  0  0
    1.7416  -10.5553    6.4623 H   0  0  0  0  0  0  0  0  0  0  0  0
    2.6853   -9.3963    7.3457 H   0  0  0  0  0  0  0  0  0  0  0  0
    0.2931   -8.3622    4.1506 H   0  0  0  0  0  0  0  0  0  0  0  0
    0.0937   -8.2530    5.9051 H   0  0  0  0  0  0  0  0  0  0  0  0
    0.2267   -9.7899    5.0967 H   0  0  0  0  0  0  0  0  0  0  0  0
    2.1940  -10.1791    3.6744 H   0  0  0  0  0  0  0  0  0  0  0  0
    3.3879   -8.8325    2.0099 H   0  0  0  0  0  0  0  0  0  0  0  0
    1.9365   -8.0659    2.5446 H   0  0  0  0  0  0  0  0  0  0  0  0
    4.7878   -7.4401    3.3528 H   0  0  0  0  0  0  0  0  0  0  0  0
    3.7634   -6.4379    2.4134 H   0  0  0  0  0  0  0  0  0  0  0  0
    4.5346   -5.1414    5.9810 H   0  0  0  0  0  0  0  0  0  0  0  0
    5.2219   -5.2432    4.3543 H   0  0  0  0  0  0  0  0  0  0  0  0
    5.3472   -6.5913    5.4178 H   0  0  0  0  0  0  0  0  0  0  0  0
    3.7186   -7.7188    6.1480 H   0  0  0  0  0  0  0  0  0  0  0  0
    1.5829   -7.4281    7.5056 H   0  0  0  0  0  0  0  0  0  0  0  0
    2.8437   -6.2252    7.5155 H   0  0  0  0  0  0  0  0  0  0  0  0
    2.6126   -4.1695    6.1943 H   0  0  0  0  0  0  0  0  0  0  0  0
   -0.9665   -3.4527    6.4450 H   0  0  0  0  0  0  0  0  0  0  0  0
   -1.2747    0.2066    4.3542 H   0  0  0  0  0  0  0  0  0  0  0  0
   -0.0779   -1.5051    3.2829 H   0  0  0  0  0  0  0  0  0  0  0  0
   -0.0923    0.8541    3.5489 H   0  0  0  0  0  0  0  0  0  0  0  0
    1.5756    0.4196    3.4622 H   0  0  0  0  0  0  0  0  0  0  0  0
    0.8704    0.7998    5.0243 H   0  0  0  0  0  0  0  0  0  0  0  0
    3.1533   -0.6236    4.8825 H   0  0  0  0  0  0  0  0  0  0  0  0
    3.3945   -2.1110    5.7790 H   0  0  0  0  0  0  0  0  0  0  0  0
    2.1839   -0.9674    6.3189 H   0  0  0  0  0  0  0  0  0  0  0  0
    1.4139   -2.9440    2.5388 H   0  0  0  0  0  0  0  0  0  0  0  0
    2.7878   -1.9245    2.7828 H   0  0  0  0  0  0  0  0  0  0  0  0
    3.4667   -4.2783    2.5731 H   0  0  0  0  0  0  0  0  0  0  0  0
    3.9028   -3.5846    4.1049 H   0  0  0  0  0  0  0  0  0  0  0  0
    0.4092   -4.7545    3.2617 H   0  0  0  0  0  0  0  0  0  0  0  0
    0.5936   -6.3767    3.7990 H   0  0  0  0  0  0  0  0  0  0  0  0
    1.4682   -5.8269    2.3696 H   0  0  0  0  0  0  0  0  0  0  0  0
  1  2  2  0
  1 32  1  0
  1 33  1  0
  2  3  1  0
  2  4  1  0
  3 34  1  0
  3 35  1  0
  3 36  1  0
  4  9  1  0
  4  5  1  0
  4 37  1  1
  5  6  1  0
  5 38  1  0
  5 39  1  0
  6  7  1  0
  6 40  1  0
  6 41  1  0
  7 14  1  0
  7  8  1  6
  7  9  1  0
  8 42  1  0
  8 43  1  0
  8 44  1  0
  9 10  1  0
  9 45  1  6
 10 11  1  0
 10 46  1  0
 10 47  1  0
 11 12  1  0
 11 48  1  0
 11 49  1  0
 12 30  1  0
 12 13  1  1
 12 14  1  0
 13 50  1  0
 13 51  1  0
 13 52  1  0
 14 15  1  0
 14 53  1  1
 15 16  1  0
 15 54  1  0
 15 55  1  0
 16 17  2  0
 16 18  1  0
 18 30  1  0
 18 19  1  0
 18 56  1  1
 19 26  1  0
 19 20  2  0
 20 21  1  0
 20 57  1  0
 21 22  2  3
 21 24  1  0
 22 23  1  0
 23 58  1  0
 24 25  1  0
 24 26  1  0
 24 59  1  6
 25 60  1  0
 25 61  1  0
 25 62  1  0
 26 27  1  1
 26 28  1  0
 27 63  1  0
 27 64  1  0
 27 65  1  0
 28 29  1  0
 28 66  1  0
 28 67  1  0
 29 30  1  0
 29 68  1  0
 29 69  1  0
 30 31  1  6
 31 70  1  0
 31 71  1  0
 31 72  1  0
M  END
>  <i_m_ct_stereo_status>  (310) 
1

>  <s_m_source_file>  (310) 
/var/tmp/pbs.5076255.sched01/tmpgyl_4d9e/126kfdajayx.sdf

>  <i_m_source_file_index>  (310) 
34

>  <i_lp_mmshare_version>  (310) 
48012

>  <i_f3d_flags>  (310) 
0

>  <s_epik_input>  (310) 
W0NIMl09QyhbQ0gzXSlbQ0BIXShbQ0gyXVtDSDJdMSlbQ0BASF0oW0NAQF0xMltDSDNdKVtDSDJdW0NIMl1bQ0BdMyhbQ0gzXSlbQ0BIXTJbQ0gyXUMoPU8pW0NAQEhdNEM9NVtDQF0oW0NIM10pKFtDQEhdKFtDSDNdKUMoXFtDSF01KT1OXFtPSF0pW0NIMl1bQ0gyXVtDQEBdMzRbQ0gzXQ==

>  <s_epik_cmdline>  (310) 
J2VwaWtfcHl0aG9uJywgJy1waHQnLCAnMi4wJywgJy1waCcsICc3LjAnLCAnLXRuJywgJzgnLCAnLW1hJywgJzIwMCcsICctaW1hZScsICc8aW5maWxlLm1hZT4nLCAnLW9tYWUnLCAnPG91dGZpbGUubWFlPic=

>  <r_lp_tautomer_probability>  (310) 
1

>  <r_epik_Ionization_Penalty>  (310) 
3.06194e-06

>  <r_epik_Ionization_Penalty_Charging>  (310) 
0

>  <r_epik_Ionization_Penalty_Neutral>  (310) 
3.06194e-06

>  <r_epik_State_Penalty>  (310) 
-0

>  <r_epik_Charging_Adjusted_Penalty>  (310) 
0

>  <i_epik_Tot_Q>  (310) 
0

>  <i_epik_Tot_abs_Q>  (310) 
0

>  <s_epik_Chemistry_Notes>  (310) 
This compound has an imine and may undergo hydrolysis.

>  <s_lp_Force_Field>  (310) 
OPLS3e

>  <r_lp_Energy>  (310) 
70.1087

>  <b_lp_Chiralities_Consistent>  (310) 
1

>  <s_lp_Variant>  (310) 
107:0-2

>  <s_i_glide_gridfile>  (310) 
pfpi4k_grid

>  <i_i_glide_lignum>  (310) 
34

>  <i_i_glide_rotatable_bonds>  (310) 
2

>  <r_i_docking_score>  (310) 
-2.22589

>  <r_i_glide_ligand_efficiency>  (310) 
-0.0718028

>  <r_i_glide_ligand_efficiency_sa>  (310) 
-0.22556

>  <r_i_glide_ligand_efficiency_ln>  (310) 
-0.502006

>  <r_i_glide_gscore>  (310) 
-2.22589

>  <r_i_glide_lipo>  (310) 
-8.60831e-05

>  <r_i_glide_hbond>  (310) 
0

>  <r_i_glide_metal>  (310) 
-0

>  <r_i_glide_rewards>  (310) 
-0.5207

>  <r_i_glide_evdw>  (310) 
-22.3953

>  <r_i_glide_ecoul>  (310) 
-4.37998

>  <r_i_glide_erotb>  (310) 
0.220894

>  <r_i_glide_esite>  (310) 
-0.149229

>  <r_i_glide_emodel>  (310) 
-30.6247

>  <r_i_glide_energy>  (310) 
-26.7753

>  <r_i_glide_einternal>  (310) 
0.452791

>  <r_i_glide_intrahb_reward>  (310) 
-0

>  <i_i_glide_confnum>  (310) 
2

>  <i_i_glide_posenum>  (310) 
22

>  <r_i_glide_eff_state_penalty>  (310) 
0

>  <ligand_id>  (310) 
107

>  <original_smiles>  (310) 
C=C(C)C1CCC2(C)C1CCC1(C)C2CC(=O)C2C3=CC(=NO)C(C)C3(C)CCC21C

>  <smiles>  (310) 
[H]ON=C1C([H])=C2C3([H])C(=O)C([H])([H])C4([H])C5(C([H])([H])[H])C([H])([H])C([H])([H])C([H])(C(=C([H])[H])C([H])([H])[H])C5([H])C([H])([H])C([H])([H])C4(C([H])([H])[H])C3(C([H])([H])[H])C([H])([H])C([H])([H])C2(C([H])([H])[H])C1([H])C([H])([H])[H]

$$$$
108:0:0
     RDKit          3D

 43 50  0  0  1  0  0  0  0  0999 V2000
    5.3566   -3.3747   -2.1914 C   0  0  0  0  0  0  0  0  0  0  0  0
    4.5031   -2.6216   -1.2283 N   0  0  2  0  0  0  0  0  0  0  0  0
    3.3800   -1.9656   -1.9779 C   0  0  0  0  0  0  0  0  0  0  0  0
    3.7996   -1.0107   -3.0893 C   0  0  0  0  0  0  0  0  0  0  0  0
    2.8890   -0.7967   -4.2824 C   0  0  0  0  0  0  0  0  0  0  0  0
    4.1784   -1.5372   -4.4525 C   0  0  0  0  0  0  0  0  0  0  0  0
    5.4187   -1.5860   -0.6287 C   0  0  1  0  0  0  0  0  0  0  0  0
    4.9035   -0.6340    0.4194 C   0  0  0  0  0  0  0  0  0  0  0  0
    5.8282   -1.7786    0.8210 C   0  0  1  0  0  0  0  0  0  0  0  0
    5.3388   -2.9385    1.6614 C   0  0  1  0  0  0  0  0  0  0  0  0
    4.1200   -2.6429    2.5423 C   0  0  2  0  0  0  0  0  0  0  0  0
    3.6974   -4.0335    3.0043 C   0  0  1  0  0  0  0  0  0  0  0  0
    2.2812   -3.7670    2.5718 C   0  0  1  0  0  0  0  0  0  0  0  0
    2.7440   -2.5532    1.7905 C   0  0  2  0  0  0  0  0  0  0  0  0
    2.6398   -3.3820    0.4635 C   0  0  2  0  0  0  0  0  0  0  0  0
    2.5114   -4.6250    1.3558 C   0  0  1  0  0  0  0  0  0  0  0  0
    3.9571   -4.9462    1.7907 C   0  0  1  0  0  0  0  0  0  0  0  0
    4.9017   -4.1732    0.8303 C   0  0  1  0  0  0  0  0  0  0  0  0
    3.9465   -3.6641   -0.2870 C   0  0  2  0  0  0  0  0  0  0  0  0
    5.8703   -2.7227   -2.8991 H   0  0  0  0  0  0  0  0  0  0  0  0
    4.7761   -4.1018   -2.7694 H   0  0  0  0  0  0  0  0  0  0  0  0
    6.1442   -3.9115   -1.6607 H   0  0  0  0  0  0  0  0  0  0  0  0
    2.7317   -2.7356   -2.4111 H   0  0  0  0  0  0  0  0  0  0  0  0
    2.7585   -1.3857   -1.2966 H   0  0  0  0  0  0  0  0  0  0  0  0
    4.3155   -0.1133   -2.7424 H   0  0  0  0  0  0  0  0  0  0  0  0
    1.9898   -1.4049   -4.3542 H   0  0  0  0  0  0  0  0  0  0  0  0
    2.8313    0.1958   -4.7238 H   0  0  0  0  0  0  0  0  0  0  0  0
    5.0018   -1.0365   -4.9425 H   0  0  0  0  0  0  0  0  0  0  0  0
    4.1153   -2.6127   -4.6088 H   0  0  0  0  0  0  0  0  0  0  0  0
    6.1121   -1.1510   -1.3378 H   0  0  0  0  0  0  0  0  0  0  0  0
    5.3702    0.3447    0.4817 H   0  0  0  0  0  0  0  0  0  0  0  0
    3.8527   -0.6362    0.6778 H   0  0  0  0  0  0  0  0  0  0  0  0
    6.8596   -1.5021    1.0373 H   0  0  0  0  0  0  0  0  0  0  0  0
    6.1679   -3.2440    2.3039 H   0  0  0  0  0  0  0  0  0  0  0  0
    4.2314   -1.9191    3.3499 H   0  0  0  0  0  0  0  0  0  0  0  0
    3.9098   -4.3776    4.0182 H   0  0  0  0  0  0  0  0  0  0  0  0
    1.4084   -3.8015    3.2209 H   0  0  0  0  0  0  0  0  0  0  0  0
    2.1232   -1.6585    1.9063 H   0  0  0  0  0  0  0  0  0  0  0  0
    1.7585   -3.1810   -0.1350 H   0  0  0  0  0  0  0  0  0  0  0  0
    1.8115   -5.4323    1.1273 H   0  0  0  0  0  0  0  0  0  0  0  0
    4.1569   -5.9931    2.0229 H   0  0  0  0  0  0  0  0  0  0  0  0
    5.7331   -4.7664    0.4512 H   0  0  0  0  0  0  0  0  0  0  0  0
    3.7110   -4.5320   -0.9051 H   0  0  0  0  0  0  0  0  0  0  0  0
  2  1  1  6
  1 20  1  0
  1 21  1  0
  1 22  1  0
  2 19  1  0
  2  3  1  0
  2  7  1  0
  3  4  1  0
  3 23  1  0
  3 24  1  0
  4  6  1  0
  4  5  1  0
  4 25  1  0
  5  6  1  0
  5 26  1  0
  5 27  1  0
  6 28  1  0
  6 29  1  0
  7  9  1  0
  7  8  1  0
  7 30  1  6
  8  9  1  0
  8 31  1  0
  8 32  1  0
  9 10  1  0
  9 33  1  6
 10 18  1  0
 10 11  1  0
 10 34  1  1
 11 14  1  0
 11 12  1  0
 11 35  1  1
 12 17  1  0
 12 13  1  0
 12 36  1  1
 13 16  1  0
 13 14  1  0
 13 37  1  1
 14 15  1  0
 14 38  1  6
 15 19  1  0
 15 16  1  0
 15 39  1  6
 16 17  1  0
 16 40  1  6
 17 18  1  0
 17 41  1  1
 18 19  1  0
 18 42  1  6
 19 43  1  6
M  CHG  1   2   1
M  END
>  <i_m_ct_stereo_status>  (311) 
1

>  <s_m_source_file>  (311) 
/var/tmp/pbs.5076255.sched01/tmpgyl_4d9e/126kfdajayx.sdf

>  <i_m_source_file_index>  (311) 
35

>  <i_lp_mmshare_version>  (311) 
48012

>  <i_f3d_flags>  (311) 
0

>  <s_epik_input>  (311) 
W0NIMl0xW0NIMl1bQ0hdMVtDSDJdW05AK10yKFtDSDNdKVtDQEhdM1tDQEBIXTRbQ0BASF01W0NAQEhdNltDQEhdM1tDQEhdN1tDQEBIXTZbQ0BASF01W0NASF03W0NAQEhdNFtDQEBIXShbQ0BASF0yOClbQ0gyXTg=

>  <s_epik_cmdline>  (311) 
J2VwaWtfcHl0aG9uJywgJy1waHQnLCAnMi4wJywgJy1waCcsICc3LjAnLCAnLXRuJywgJzgnLCAnLW1hJywgJzIwMCcsICctaW1hZScsICc8aW5maWxlLm1hZT4nLCAnLW9tYWUnLCAnPG91dGZpbGUubWFlPic=

>  <r_lp_tautomer_probability>  (311) 
1

>  <r_epik_Ionization_Penalty>  (311) 
0

>  <r_epik_Ionization_Penalty_Charging>  (311) 
0

>  <r_epik_Ionization_Penalty_Neutral>  (311) 
0

>  <r_epik_State_Penalty>  (311) 
-0

>  <r_epik_Charging_Adjusted_Penalty>  (311) 
0

>  <i_epik_Tot_Q>  (311) 
1

>  <i_epik_Tot_abs_Q>  (311) 
1

>  <s_lp_Force_Field>  (311) 
OPLS3e

>  <r_lp_Energy>  (311) 
97.9042

>  <b_lp_Chiralities_Consistent>  (311) 
1

>  <s_lp_Variant>  (311) 
108:0-1

>  <s_i_glide_gridfile>  (311) 
pfpi4k_grid

>  <i_i_glide_lignum>  (311) 
35

>  <i_i_glide_rotatable_bonds>  (311) 
2

>  <r_i_docking_score>  (311) 
-3.00272

>  <r_i_glide_ligand_efficiency>  (311) 
-0.158038

>  <r_i_glide_ligand_efficiency_sa>  (311) 
-0.421708

>  <r_i_glide_ligand_efficiency_ln>  (311) 
-0.761253

>  <r_i_glide_gscore>  (311) 
-3.00272

>  <r_i_glide_lipo>  (311) 
-0.735542

>  <r_i_glide_hbond>  (311) 
0

>  <r_i_glide_metal>  (311) 
-0

>  <r_i_glide_rewards>  (311) 
-1.67461

>  <r_i_glide_evdw>  (311) 
-15.7075

>  <r_i_glide_ecoul>  (311) 
-2.24278

>  <r_i_glide_erotb>  (311) 
0.543519

>  <r_i_glide_esite>  (311) 
-0.0142853

>  <r_i_glide_emodel>  (311) 
-20.6006

>  <r_i_glide_energy>  (311) 
-17.9503

>  <r_i_glide_einternal>  (311) 
0.632658

>  <r_i_glide_intrahb_reward>  (311) 
-0

>  <i_i_glide_confnum>  (311) 
1

>  <i_i_glide_posenum>  (311) 
1

>  <r_i_glide_eff_state_penalty>  (311) 
0

>  <ligand_id>  (311) 
108

>  <original_smiles>  (311) 
C[N+]1(CC2CC2)C2CC2C2C3C4C5C3C3C5C4C2C31

>  <smiles>  (311) 
[H]C1([H])C([H])([H])C1([H])C([H])([H])[N+]1(C([H])([H])[H])C2([H])C([H])([H])C2([H])C2([H])C3([H])C4([H])C5([H])C3([H])C3([H])C5([H])C4([H])C2([H])C31[H]

$$$$
108:0:1
     RDKit          3D

 43 50  0  0  1  0  0  0  0  0999 V2000
    5.0015   -2.7059   -3.3527 C   0  0  0  0  0  0  0  0  0  0  0  0
    4.1409   -2.2444   -2.2503 N   0  0  2  0  0  0  0  0  0  0  0  0
    2.9383   -1.5653   -2.8701 C   0  0  0  0  0  0  0  0  0  0  0  0
    3.2239   -0.2659   -3.6008 C   0  0  0  0  0  0  0  0  0  0  0  0
    2.3072    0.1868   -4.7423 C   0  0  0  0  0  0  0  0  0  0  0  0
    3.7393   -0.2007   -5.0198 C   0  0  0  0  0  0  0  0  0  0  0  0
    4.9809   -1.2854   -1.4599 C   0  0  1  0  0  0  0  0  0  0  0  0
    4.4195   -0.6746   -0.2228 C   0  0  0  0  0  0  0  0  0  0  0  0
    5.4812   -1.7522   -0.1189 C   0  0  1  0  0  0  0  0  0  0  0  0
    5.1699   -3.1141    0.4486 C   0  0  1  0  0  0  0  0  0  0  0  0
    3.9707   -3.1440    1.4126 C   0  0  2  0  0  0  0  0  0  0  0  0
    3.7080   -4.6360    1.5405 C   0  0  1  0  0  0  0  0  0  0  0  0
    2.2558   -4.4178    1.2425 C   0  0  1  0  0  0  0  0  0  0  0  0
    2.5517   -3.0244    0.7456 C   0  0  2  0  0  0  0  0  0  0  0  0
    2.4382   -3.5343   -0.7187 C   0  0  2  0  0  0  0  0  0  0  0  0
    2.4818   -4.9418   -0.1443 C   0  0  1  0  0  0  0  0  0  0  0  0
    3.9664   -5.2179    0.1449 C   0  0  1  0  0  0  0  0  0  0  0  0
    4.7947   -4.1574   -0.6316 C   0  0  1  0  0  0  0  0  0  0  0  0
    3.7271   -3.5002   -1.5501 C   0  0  2  0  0  0  0  0  0  0  0  0
    5.3984   -1.8431   -3.8838 H   0  0  0  0  0  0  0  0  0  0  0  0
    4.4577   -3.3031   -4.0873 H   0  0  0  0  0  0  0  0  0  0  0  0
    5.8655   -3.2790   -2.9973 H   0  0  0  0  0  0  0  0  0  0  0  0
    2.3954   -2.2660   -3.5094 H   0  0  0  0  0  0  0  0  0  0  0  0
    2.2518   -1.2844   -2.0929 H   0  0  0  0  0  0  0  0  0  0  0  0
    3.5956    0.5375   -2.9627 H   0  0  0  0  0  0  0  0  0  0  0  0
    1.5550   -0.5007   -5.1321 H   0  0  0  0  0  0  0  0  0  0  0  0
    2.0821    1.2376   -4.8586 H   0  0  0  0  0  0  0  0  0  0  0  0
    4.4610    0.5846   -5.1733 H   0  0  0  0  0  0  0  0  0  0  0  0
    3.8918   -1.1226   -5.5635 H   0  0  0  0  0  0  0  0  0  0  0  0
    5.5965   -0.6249   -2.0641 H   0  0  0  0  0  0  0  0  0  0  0  0
    4.7884    0.2922    0.0942 H   0  0  0  0  0  0  0  0  0  0  0  0
    3.3712   -0.8504    0.0194 H   0  0  0  0  0  0  0  0  0  0  0  0
    6.4879   -1.4058    0.1266 H   0  0  0  0  0  0  0  0  0  0  0  0
    6.0640   -3.4658    0.9797 H   0  0  0  0  0  0  0  0  0  0  0  0
    4.0380   -2.6236    2.3665 H   0  0  0  0  0  0  0  0  0  0  0  0
    3.9502   -5.1870    2.4445 H   0  0  0  0  0  0  0  0  0  0  0  0
    1.4524   -4.7049    1.9198 H   0  0  0  0  0  0  0  0  0  0  0  0
    1.8317   -2.2843    1.1166 H   0  0  0  0  0  0  0  0  0  0  0  0
    1.4776   -3.3423   -1.2126 H   0  0  0  0  0  0  0  0  0  0  0  0
    1.8011   -5.7331   -0.4827 H   0  0  0  0  0  0  0  0  0  0  0  0
    4.2552   -6.2763    0.1229 H   0  0  0  0  0  0  0  0  0  0  0  0
    5.6501   -4.5643   -1.1766 H   0  0  0  0  0  0  0  0  0  0  0  0
    3.5636   -4.2348   -2.3498 H   0  0  0  0  0  0  0  0  0  0  0  0
  2  1  1  6
  1 20  1  0
  1 21  1  0
  1 22  1  0
  2 19  1  0
  2  3  1  0
  2  7  1  0
  3  4  1  0
  3 23  1  0
  3 24  1  0
  4  6  1  0
  4  5  1  0
  4 25  1  0
  5  6  1  0
  5 26  1  0
  5 27  1  0
  6 28  1  0
  6 29  1  0
  7  9  1  0
  7  8  1  0
  7 30  1  6
  8  9  1  0
  8 31  1  0
  8 32  1  0
  9 10  1  0
  9 33  1  6
 10 18  1  0
 10 11  1  0
 10 34  1  1
 11 14  1  0
 11 12  1  0
 11 35  1  1
 12 17  1  0
 12 13  1  0
 12 36  1  1
 13 16  1  0
 13 14  1  0
 13 37  1  1
 14 15  1  0
 14 38  1  1
 15 19  1  0
 15 16  1  0
 15 39  1  6
 16 17  1  0
 16 40  1  6
 17 18  1  0
 17 41  1  1
 18 19  1  0
 18 42  1  6
 19 43  1  6
M  CHG  1   2   1
M  END
>  <i_m_ct_stereo_status>  (312) 
1

>  <s_m_source_file>  (312) 
/var/tmp/pbs.5076255.sched01/tmpgyl_4d9e/126kfdajayx.sdf

>  <i_m_source_file_index>  (312) 
35

>  <i_lp_mmshare_version>  (312) 
48012

>  <i_f3d_flags>  (312) 
0

>  <s_epik_input>  (312) 
W0NIMl0xW0NIMl1bQ0hdMVtDSDJdW05AK10yKFtDSDNdKVtDQEhdM1tDQEBIXTRbQ0BASF01W0NAQEhdNltDQEhdM1tDQEhdN1tDQEBIXTZbQ0BASF01W0NASF03W0NAQEhdNFtDQEBIXShbQ0BASF0yOClbQ0gyXTg=

>  <s_epik_cmdline>  (312) 
J2VwaWtfcHl0aG9uJywgJy1waHQnLCAnMi4wJywgJy1waCcsICc3LjAnLCAnLXRuJywgJzgnLCAnLW1hJywgJzIwMCcsICctaW1hZScsICc8aW5maWxlLm1hZT4nLCAnLW9tYWUnLCAnPG91dGZpbGUubWFlPic=

>  <r_lp_tautomer_probability>  (312) 
1

>  <r_epik_Ionization_Penalty>  (312) 
0

>  <r_epik_Ionization_Penalty_Charging>  (312) 
0

>  <r_epik_Ionization_Penalty_Neutral>  (312) 
0

>  <r_epik_State_Penalty>  (312) 
-0

>  <r_epik_Charging_Adjusted_Penalty>  (312) 
0

>  <i_epik_Tot_Q>  (312) 
1

>  <i_epik_Tot_abs_Q>  (312) 
1

>  <s_lp_Force_Field>  (312) 
OPLS3e

>  <r_lp_Energy>  (312) 
97.9042

>  <b_lp_Chiralities_Consistent>  (312) 
1

>  <s_lp_Variant>  (312) 
108:0-1

>  <s_i_glide_gridfile>  (312) 
pfpi4k_grid

>  <i_i_glide_lignum>  (312) 
35

>  <i_i_glide_rotatable_bonds>  (312) 
2

>  <r_i_docking_score>  (312) 
-2.70914

>  <r_i_glide_ligand_efficiency>  (312) 
-0.142586

>  <r_i_glide_ligand_efficiency_sa>  (312) 
-0.380477

>  <r_i_glide_ligand_efficiency_ln>  (312) 
-0.686825

>  <r_i_glide_gscore>  (312) 
-2.70914

>  <r_i_glide_lipo>  (312) 
-0.533244

>  <r_i_glide_hbond>  (312) 
0

>  <r_i_glide_metal>  (312) 
-0

>  <r_i_glide_rewards>  (312) 
-1.67461

>  <r_i_glide_evdw>  (312) 
-15.3033

>  <r_i_glide_ecoul>  (312) 
-1.86422

>  <r_i_glide_erotb>  (312) 
0.543519

>  <r_i_glide_esite>  (312) 
0

>  <r_i_glide_emodel>  (312) 
-18.8724

>  <r_i_glide_energy>  (312) 
-17.1676

>  <r_i_glide_einternal>  (312) 
1.48981

>  <r_i_glide_intrahb_reward>  (312) 
-0

>  <i_i_glide_confnum>  (312) 
6

>  <i_i_glide_posenum>  (312) 
5

>  <r_i_glide_eff_state_penalty>  (312) 
0

>  <ligand_id>  (312) 
108

>  <original_smiles>  (312) 
C[N+]1(CC2CC2)C2CC2C2C3C4C5C3C3C5C4C2C31

>  <smiles>  (312) 
[H]C1([H])C([H])([H])C1([H])C([H])([H])[N+]1(C([H])([H])[H])C2([H])C([H])([H])C2([H])C2([H])C3([H])C4([H])C5([H])C3([H])C3([H])C5([H])C4([H])C2([H])C31[H]

$$$$
108:0:2
     RDKit          3D

 43 50  0  0  1  0  0  0  0  0999 V2000
    4.3477   -5.1444   -0.1638 C   0  0  0  0  0  0  0  0  0  0  0  0
    4.0656   -3.6891    0.0288 N   0  0  2  0  0  0  0  0  0  0  0  0
    3.2872   -3.2442   -1.1838 C   0  0  0  0  0  0  0  0  0  0  0  0
    3.3912   -1.7649   -1.5479 C   0  0  0  0  0  0  0  0  0  0  0  0
    3.0657   -1.2499   -2.9285 C   0  0  0  0  0  0  0  0  0  0  0  0
    4.5008   -1.2971   -2.4775 C   0  0  0  0  0  0  0  0  0  0  0  0
    5.4396   -3.0516    0.0908 C   0  0  1  0  0  0  0  0  0  0  0  0
    5.6391   -1.5685    0.3584 C   0  0  0  0  0  0  0  0  0  0  0  0
    5.9195   -2.5639    1.4596 C   0  0  1  0  0  0  0  0  0  0  0  0
    5.0378   -2.6053    2.6903 C   0  0  1  0  0  0  0  0  0  0  0  0
    4.2098   -1.3453    2.9880 C   0  0  2  0  0  0  0  0  0  0  0  0
    3.2562   -1.8241    4.0801 C   0  0  1  0  0  0  0  0  0  0  0  0
    2.0760   -1.2750    3.3221 C   0  0  1  0  0  0  0  0  0  0  0  0
    2.9394   -1.1188    2.0866 C   0  0  2  0  0  0  0  0  0  0  0  0
    2.2872   -2.4134    1.4955 C   0  0  2  0  0  0  0  0  0  0  0  0
    1.7301   -2.6759    2.8959 C   0  0  1  0  0  0  0  0  0  0  0  0
    2.9095   -3.2736    3.6864 C   0  0  1  0  0  0  0  0  0  0  0  0
    3.9718   -3.7307    2.6466 C   0  0  1  0  0  0  0  0  0  0  0  0
    3.2189   -3.6142    1.2820 C   0  0  2  0  0  0  0  0  0  0  0  0
    4.9790   -5.3307   -1.0389 H   0  0  0  0  0  0  0  0  0  0  0  0
    3.4308   -5.7277   -0.3099 H   0  0  0  0  0  0  0  0  0  0  0  0
    4.8700   -5.5623    0.7022 H   0  0  0  0  0  0  0  0  0  0  0  0
    3.5966   -3.8153   -2.0658 H   0  0  0  0  0  0  0  0  0  0  0  0
    2.2259   -3.4823   -1.0585 H   0  0  0  0  0  0  0  0  0  0  0  0
    3.0428   -1.0825   -0.7691 H   0  0  0  0  0  0  0  0  0  0  0  0
    2.7154   -1.9720   -3.6634 H   0  0  0  0  0  0  0  0  0  0  0  0
    2.6064   -0.2667   -2.9761 H   0  0  0  0  0  0  0  0  0  0  0  0
    4.9942   -0.3604   -2.2246 H   0  0  0  0  0  0  0  0  0  0  0  0
    5.1517   -2.0685   -2.8926 H   0  0  0  0  0  0  0  0  0  0  0  0
    6.1537   -3.4919   -0.6005 H   0  0  0  0  0  0  0  0  0  0  0  0
    6.5056   -1.1260   -0.1220 H   0  0  0  0  0  0  0  0  0  0  0  0
    4.8096   -0.8858    0.4773 H   0  0  0  0  0  0  0  0  0  0  0  0
    6.9804   -2.7086    1.6776 H   0  0  0  0  0  0  0  0  0  0  0  0
    5.6939   -2.7948    3.5425 H   0  0  0  0  0  0  0  0  0  0  0  0
    4.7423   -0.4255    3.2329 H   0  0  0  0  0  0  0  0  0  0  0  0
    3.4145   -1.5537    5.1269 H   0  0  0  0  0  0  0  0  0  0  0  0
    1.3723   -0.5336    3.6901 H   0  0  0  0  0  0  0  0  0  0  0  0
    2.8211   -0.1726    1.5438 H   0  0  0  0  0  0  0  0  0  0  0  0
    1.4863   -2.2446    0.7880 H   0  0  0  0  0  0  0  0  0  0  0  0
    0.7111   -3.0498    3.0359 H   0  0  0  0  0  0  0  0  0  0  0  0
    2.6350   -3.9396    4.5048 H   0  0  0  0  0  0  0  0  0  0  0  0
    4.3804   -4.7252    2.8339 H   0  0  0  0  0  0  0  0  0  0  0  0
    2.5415   -4.4702    1.2413 H   0  0  0  0  0  0  0  0  0  0  0  0
  2  1  1  6
  1 20  1  0
  1 21  1  0
  1 22  1  0
  2 19  1  0
  2  3  1  0
  2  7  1  0
  3  4  1  0
  3 23  1  0
  3 24  1  0
  4  6  1  0
  4  5  1  0
  4 25  1  0
  5  6  1  0
  5 26  1  0
  5 27  1  0
  6 28  1  0
  6 29  1  0
  7  9  1  0
  7  8  1  0
  7 30  1  6
  8  9  1  0
  8 31  1  0
  8 32  1  0
  9 10  1  0
  9 33  1  1
 10 18  1  0
 10 11  1  0
 10 34  1  1
 11 14  1  0
 11 12  1  0
 11 35  1  1
 12 17  1  0
 12 13  1  0
 12 36  1  1
 13 16  1  0
 13 14  1  0
 13 37  1  1
 14 15  1  0
 14 38  1  6
 15 19  1  0
 15 16  1  0
 15 39  1  6
 16 17  1  0
 16 40  1  6
 17 18  1  0
 17 41  1  1
 18 19  1  0
 18 42  1  1
 19 43  1  6
M  CHG  1   2   1
M  END
>  <i_m_ct_stereo_status>  (313) 
1

>  <s_m_source_file>  (313) 
/var/tmp/pbs.5076255.sched01/tmpgyl_4d9e/126kfdajayx.sdf

>  <i_m_source_file_index>  (313) 
35

>  <i_lp_mmshare_version>  (313) 
48012

>  <i_f3d_flags>  (313) 
0

>  <s_epik_input>  (313) 
W0NIMl0xW0NIMl1bQ0hdMVtDSDJdW05AK10yKFtDSDNdKVtDQEhdM1tDQEBIXTRbQ0BASF01W0NAQEhdNltDQEhdM1tDQEhdN1tDQEBIXTZbQ0BASF01W0NASF03W0NAQEhdNFtDQEBIXShbQ0BASF0yOClbQ0gyXTg=

>  <s_epik_cmdline>  (313) 
J2VwaWtfcHl0aG9uJywgJy1waHQnLCAnMi4wJywgJy1waCcsICc3LjAnLCAnLXRuJywgJzgnLCAnLW1hJywgJzIwMCcsICctaW1hZScsICc8aW5maWxlLm1hZT4nLCAnLW9tYWUnLCAnPG91dGZpbGUubWFlPic=

>  <r_lp_tautomer_probability>  (313) 
1

>  <r_epik_Ionization_Penalty>  (313) 
0

>  <r_epik_Ionization_Penalty_Charging>  (313) 
0

>  <r_epik_Ionization_Penalty_Neutral>  (313) 
0

>  <r_epik_State_Penalty>  (313) 
-0

>  <r_epik_Charging_Adjusted_Penalty>  (313) 
0

>  <i_epik_Tot_Q>  (313) 
1

>  <i_epik_Tot_abs_Q>  (313) 
1

>  <s_lp_Force_Field>  (313) 
OPLS3e

>  <r_lp_Energy>  (313) 
97.9042

>  <b_lp_Chiralities_Consistent>  (313) 
1

>  <s_lp_Variant>  (313) 
108:0-1

>  <s_i_glide_gridfile>  (313) 
pfpi4k_grid

>  <i_i_glide_lignum>  (313) 
35

>  <i_i_glide_rotatable_bonds>  (313) 
2

>  <r_i_docking_score>  (313) 
-2.65119

>  <r_i_glide_ligand_efficiency>  (313) 
-0.139536

>  <r_i_glide_ligand_efficiency_sa>  (313) 
-0.372339

>  <r_i_glide_ligand_efficiency_ln>  (313) 
-0.672133

>  <r_i_glide_gscore>  (313) 
-2.65119

>  <r_i_glide_lipo>  (313) 
-0.329543

>  <r_i_glide_hbond>  (313) 
0

>  <r_i_glide_metal>  (313) 
-0

>  <r_i_glide_rewards>  (313) 
-1.67461

>  <r_i_glide_evdw>  (313) 
-14.4594

>  <r_i_glide_ecoul>  (313) 
-3.11719

>  <r_i_glide_erotb>  (313) 
0.543519

>  <r_i_glide_esite>  (313) 
0

>  <r_i_glide_emodel>  (313) 
-17.7994

>  <r_i_glide_energy>  (313) 
-17.5766

>  <r_i_glide_einternal>  (313) 
4.63806

>  <r_i_glide_intrahb_reward>  (313) 
-0

>  <i_i_glide_confnum>  (313) 
6

>  <i_i_glide_posenum>  (313) 
19

>  <r_i_glide_eff_state_penalty>  (313) 
0

>  <ligand_id>  (313) 
108

>  <original_smiles>  (313) 
C[N+]1(CC2CC2)C2CC2C2C3C4C5C3C3C5C4C2C31

>  <smiles>  (313) 
[H]C1([H])C([H])([H])C1([H])C([H])([H])[N+]1(C([H])([H])[H])C2([H])C([H])([H])C2([H])C2([H])C3([H])C4([H])C5([H])C3([H])C3([H])C5([H])C4([H])C2([H])C31[H]

$$$$
109:0:0
     RDKit          3D

 53 58  0  0  1  0  0  0  0  0999 V2000
    7.1652   -4.4908    1.4014 C   0  0  0  0  0  0  0  0  0  0  0  0
    6.7344   -3.4365    0.6724 C   0  0  0  0  0  0  0  0  0  0  0  0
    7.7790   -2.4175    0.2147 C   0  0  0  0  0  0  0  0  0  0  0  0
    5.2765   -3.1612    0.2174 C   0  0  1  0  0  0  0  0  0  0  0  0
    5.4114   -2.9117   -1.3261 C   0  0  0  0  0  0  0  0  0  0  0  0
    4.2055   -3.2237   -2.1769 C   0  0  1  0  0  0  0  0  0  0  0  0
    2.9209   -2.7166   -1.5851 C   0  0  2  0  0  0  0  0  0  0  0  0
    2.1058   -3.8764   -1.1250 C   0  0  0  0  0  0  0  0  0  0  0  0
    2.8683   -4.6980   -0.0851 C   0  0  1  0  0  0  0  0  0  0  0  0
    4.2638   -4.3788    0.5247 C   0  0  2  0  0  0  0  0  0  0  0  0
    2.9482   -4.2108    1.3074 C   0  0  2  0  0  0  0  0  0  0  0  0
    2.4611   -4.8508    2.6165 C   0  0  0  0  0  0  0  0  0  0  0  0
    2.3059   -3.6183    3.5437 C   0  0  0  0  0  0  0  0  0  0  0  0
    3.2042   -2.6602    2.8055 C   0  0  1  0  0  0  0  0  0  0  0  0
    3.4964   -1.1708    2.8137 C   0  0  0  0  0  0  0  0  0  0  0  0
    4.8947   -1.5644    2.2155 C   0  0  1  0  0  0  0  0  0  0  0  0
    6.0430   -0.6323    2.5135 C   0  0  0  0  0  0  0  0  0  0  0  0
    4.7059   -2.7977    3.0892 C   0  0  0  0  0  0  0  0  0  0  0  0
    4.8881   -1.8627    0.7797 O   0  0  0  0  0  0  0  0  0  0  0  0
    2.7318   -2.8676    1.4947 O   0  0  0  0  0  0  0  0  0  0  0  0
    3.3160   -2.2941   -2.9785 C   0  0  0  0  0  0  0  0  0  0  0  0
    3.7297   -0.8573   -3.2236 C   0  0  0  0  0  0  0  0  0  0  0  0
    2.5271   -2.8180   -4.1491 C   0  0  0  0  0  0  0  0  0  0  0  0
    8.2101   -4.5801    1.6515 H   0  0  0  0  0  0  0  0  0  0  0  0
    6.5213   -5.2717    1.7712 H   0  0  0  0  0  0  0  0  0  0  0  0
    7.3803   -1.4051    0.2369 H   0  0  0  0  0  0  0  0  0  0  0  0
    8.1107   -2.6297   -0.8022 H   0  0  0  0  0  0  0  0  0  0  0  0
    8.6571   -2.4424    0.8637 H   0  0  0  0  0  0  0  0  0  0  0  0
    5.7487   -1.8963   -1.5215 H   0  0  0  0  0  0  0  0  0  0  0  0
    6.1843   -3.5676   -1.7279 H   0  0  0  0  0  0  0  0  0  0  0  0
    4.2212   -4.2455   -2.5535 H   0  0  0  0  0  0  0  0  0  0  0  0
    2.9868   -1.9177   -0.8527 H   0  0  0  0  0  0  0  0  0  0  0  0
    1.1770   -3.4918   -0.7317 H   0  0  0  0  0  0  0  0  0  0  0  0
    1.8022   -4.5090   -1.9407 H   0  0  0  0  0  0  0  0  0  0  0  0
    2.6403   -5.7547   -0.1630 H   0  0  0  0  0  0  0  0  0  0  0  0
    4.7908   -5.3157    0.6509 H   0  0  0  0  0  0  0  0  0  0  0  0
    1.5172   -5.3653    2.4664 H   0  0  0  0  0  0  0  0  0  0  0  0
    3.2051   -5.5530    2.9736 H   0  0  0  0  0  0  0  0  0  0  0  0
    1.2876   -3.2441    3.5657 H   0  0  0  0  0  0  0  0  0  0  0  0
    2.6313   -3.8022    4.5632 H   0  0  0  0  0  0  0  0  0  0  0  0
    2.8726   -0.5639    2.1569 H   0  0  0  0  0  0  0  0  0  0  0  0
    3.5649   -0.7672    3.8199 H   0  0  0  0  0  0  0  0  0  0  0  0
    5.9693   -0.1933    3.5121 H   0  0  0  0  0  0  0  0  0  0  0  0
    6.0220    0.1491    1.7667 H   0  0  0  0  0  0  0  0  0  0  0  0
    7.0066   -1.1157    2.4418 H   0  0  0  0  0  0  0  0  0  0  0  0
    4.9432   -2.6036    4.1379 H   0  0  0  0  0  0  0  0  0  0  0  0
    5.1483   -3.7388    2.7832 H   0  0  0  0  0  0  0  0  0  0  0  0
    2.8542   -0.2426   -3.4365 H   0  0  0  0  0  0  0  0  0  0  0  0
    4.4259   -0.8011   -4.0613 H   0  0  0  0  0  0  0  0  0  0  0  0
    4.2097   -0.4571   -2.3308 H   0  0  0  0  0  0  0  0  0  0  0  0
    1.6044   -2.2491   -4.2564 H   0  0  0  0  0  0  0  0  0  0  0  0
    2.2586   -3.8637   -4.0100 H   0  0  0  0  0  0  0  0  0  0  0  0
    3.1212   -2.7367   -5.0530 H   0  0  0  0  0  0  0  0  0  0  0  0
  1  2  2  0
  1 24  1  0
  1 25  1  0
  2  3  1  0
  4  2  1  1
  3 26  1  0
  3 27  1  0
  3 28  1  0
  4 10  1  0
  4 19  1  0
  4  5  1  0
  5  6  1  0
  5 29  1  0
  5 30  1  0
  6 21  1  0
  6  7  1  0
  6 31  1  6
  7  8  1  0
  7 21  1  0
  7 32  1  1
  8  9  1  0
  8 33  1  0
  8 34  1  0
  9 11  1  0
  9 10  1  0
  9 35  1  1
 10 11  1  0
 10 36  1  1
 11 20  1  0
 11 12  1  1
 12 13  1  0
 12 37  1  0
 12 38  1  0
 14 13  1  1
 13 39  1  0
 13 40  1  0
 14 18  1  0
 14 15  1  0
 14 20  1  0
 15 16  1  0
 15 41  1  0
 15 42  1  0
 16 17  1  1
 16 18  1  0
 16 19  1  0
 17 43  1  0
 17 44  1  0
 17 45  1  0
 18 46  1  0
 18 47  1  0
 21 22  1  0
 21 23  1  0
 22 48  1  0
 22 49  1  0
 22 50  1  0
 23 51  1  0
 23 52  1  0
 23 53  1  0
M  END
>  <i_m_ct_stereo_status>  (314) 
1

>  <s_m_source_file>  (314) 
/var/tmp/pbs.5076255.sched01/tmpgyl_4d9e/126kfdajayx.sdf

>  <i_m_source_file_index>  (314) 
36

>  <i_lp_mmshare_version>  (314) 
48012

>  <i_f3d_flags>  (314) 
0

>  <s_epik_input>  (314) 
W0NIM11DMShbQ0gzXSlbQ0BASF0oW0NIMl0yKVtDQEBIXTFbQ0gyXVtDQF0oQyg9W0NIMl0pW0NIM10pKFtDQEBIXTNbQ0BIXTJbQ0BdMzQ1KU9bQ0BAXTYoW0NIM10pW0NIMl1bQ0BAXShPNSkoW0NIMl02KVtDSDJdW0NIMl00

>  <s_epik_cmdline>  (314) 
J2VwaWtfcHl0aG9uJywgJy1waHQnLCAnMi4wJywgJy1waCcsICc3LjAnLCAnLXRuJywgJzgnLCAnLW1hJywgJzIwMCcsICctaW1hZScsICc8aW5maWxlLm1hZT4nLCAnLW9tYWUnLCAnPG91dGZpbGUubWFlPic=

>  <r_lp_tautomer_probability>  (314) 
1

>  <r_epik_Ionization_Penalty>  (314) 
2.50453e-11

>  <r_epik_Ionization_Penalty_Charging>  (314) 
0

>  <r_epik_Ionization_Penalty_Neutral>  (314) 
2.50453e-11

>  <r_epik_State_Penalty>  (314) 
-0

>  <r_epik_Charging_Adjusted_Penalty>  (314) 
0

>  <i_epik_Tot_Q>  (314) 
0

>  <i_epik_Tot_abs_Q>  (314) 
0

>  <s_lp_Force_Field>  (314) 
OPLS3e

>  <r_lp_Energy>  (314) 
106.128

>  <b_lp_Chiralities_Consistent>  (314) 
1

>  <s_lp_Variant>  (314) 
109:0-1

>  <s_i_glide_gridfile>  (314) 
pfpi4k_grid

>  <i_i_glide_lignum>  (314) 
36

>  <i_i_glide_rotatable_bonds>  (314) 
1

>  <r_i_docking_score>  (314) 
-2.55719

>  <r_i_glide_ligand_efficiency>  (314) 
-0.111182

>  <r_i_glide_ligand_efficiency_sa>  (314) 
-0.316187

>  <r_i_glide_ligand_efficiency_ln>  (314) 
-0.618352

>  <r_i_glide_gscore>  (314) 
-2.55719

>  <r_i_glide_lipo>  (314) 
-0.803815

>  <r_i_glide_hbond>  (314) 
0

>  <r_i_glide_metal>  (314) 
-0

>  <r_i_glide_rewards>  (314) 
-1.26503

>  <r_i_glide_evdw>  (314) 
-17.9423

>  <r_i_glide_ecoul>  (314) 
1.47195

>  <r_i_glide_erotb>  (314) 
0.187981

>  <r_i_glide_esite>  (314) 
0

>  <r_i_glide_emodel>  (314) 
-18.4864

>  <r_i_glide_energy>  (314) 
-16.4703

>  <r_i_glide_einternal>  (314) 
0.0591291

>  <r_i_glide_intrahb_reward>  (314) 
-0

>  <i_i_glide_confnum>  (314) 
1

>  <i_i_glide_posenum>  (314) 
12

>  <r_i_glide_eff_state_penalty>  (314) 
0

>  <ligand_id>  (314) 
109

>  <original_smiles>  (314) 
C=C(C)C12CC3C(CC4C1C41CCC4(CC(C)(C4)O2)O1)C3(C)C

>  <smiles>  (314) 
[H]C([H])=C(C([H])([H])[H])C12OC3(C([H])([H])[H])C([H])([H])C4(OC5(C([H])([H])C4([H])[H])C([H])(C([H])([H])C4([H])C([H])(C1([H])[H])C4(C([H])([H])[H])C([H])([H])[H])C25[H])C3([H])[H]

$$$$
109:0:1
     RDKit          3D

 53 58  0  0  1  0  0  0  0  0999 V2000
    8.3378   -3.5797    0.8563 C   0  0  0  0  0  0  0  0  0  0  0  0
    7.5539   -2.5466    0.4780 C   0  0  0  0  0  0  0  0  0  0  0  0
    8.1591   -1.1784    0.5217 C   0  0  0  0  0  0  0  0  0  0  0  0
    6.0961   -2.5876   -0.0507 C   0  0  1  0  0  0  0  0  0  0  0  0
    6.1731   -1.8473   -1.4304 C   0  0  0  0  0  0  0  0  0  0  0  0
    5.1928   -2.2500   -2.4919 C   0  0  1  0  0  0  0  0  0  0  0  0
    3.7902   -2.3683   -1.9705 C   0  0  2  0  0  0  0  0  0  0  0  0
    3.4796   -3.8198   -1.9404 C   0  0  0  0  0  0  0  0  0  0  0  0
    4.4582   -4.6041   -1.0804 C   0  0  1  0  0  0  0  0  0  0  0  0
    5.5796   -4.0588   -0.1939 C   0  0  2  0  0  0  0  0  0  0  0  0
    4.2489   -4.5966    0.3965 C   0  0  2  0  0  0  0  0  0  0  0  0
    3.9840   -5.7131    1.3809 C   0  0  0  0  0  0  0  0  0  0  0  0
    3.3898   -4.9498    2.5778 C   0  0  0  0  0  0  0  0  0  0  0  0
    3.9155   -3.5806    2.2719 C   0  0  1  0  0  0  0  0  0  0  0  0
    3.6655   -2.1477    2.7112 C   0  0  0  0  0  0  0  0  0  0  0  0
    5.1287   -1.8334    2.2384 C   0  0  1  0  0  0  0  0  0  0  0  0
    5.8387   -0.7077    2.9382 C   0  0  0  0  0  0  0  0  0  0  0  0
    5.3676   -3.2770    2.6999 C   0  0  0  0  0  0  0  0  0  0  0  0
    5.2765   -1.6877    0.7843 O   0  0  0  0  0  0  0  0  0  0  0  0
    3.5566   -3.5037    0.8976 O   0  0  0  0  0  0  0  0  0  0  0  0
    4.0885   -1.4509   -3.1478 C   0  0  0  0  0  0  0  0  0  0  0  0
    3.9477    0.0074   -2.9577 C   0  0  0  0  0  0  0  0  0  0  0  0
    3.5447   -1.7767   -4.4991 C   0  0  0  0  0  0  0  0  0  0  0  0
    9.3351   -3.3514    1.2001 H   0  0  0  0  0  0  0  0  0  0  0  0
    8.0428   -4.6190    0.8687 H   0  0  0  0  0  0  0  0  0  0  0  0
    7.3471   -0.4471    0.5945 H   0  0  0  0  0  0  0  0  0  0  0  0
    8.7906   -1.0453   -0.3542 H   0  0  0  0  0  0  0  0  0  0  0  0
    8.9008   -1.0565    1.2933 H   0  0  0  0  0  0  0  0  0  0  0  0
    6.1051   -0.7768   -1.2513 H   0  0  0  0  0  0  0  0  0  0  0  0
    7.1373   -2.0586   -1.8735 H   0  0  0  0  0  0  0  0  0  0  0  0
    5.5814   -3.0689   -3.1243 H   0  0  0  0  0  0  0  0  0  0  0  0
    3.5282   -1.8425   -1.0313 H   0  0  0  0  0  0  0  0  0  0  0  0
    2.4525   -3.9553   -1.5989 H   0  0  0  0  0  0  0  0  0  0  0  0
    3.5574   -4.1837   -2.9693 H   0  0  0  0  0  0  0  0  0  0  0  0
    4.8203   -5.5366   -1.5298 H   0  0  0  0  0  0  0  0  0  0  0  0
    6.3934   -4.7646   -0.2903 H   0  0  0  0  0  0  0  0  0  0  0  0
    3.2948   -6.4406    0.9472 H   0  0  0  0  0  0  0  0  0  0  0  0
    4.9230   -6.2176    1.6084 H   0  0  0  0  0  0  0  0  0  0  0  0
    2.3010   -4.9544    2.5648 H   0  0  0  0  0  0  0  0  0  0  0  0
    3.7195   -5.3434    3.5460 H   0  0  0  0  0  0  0  0  0  0  0  0
    2.8950   -1.6320    2.1571 H   0  0  0  0  0  0  0  0  0  0  0  0
    3.5364   -2.0722    3.7952 H   0  0  0  0  0  0  0  0  0  0  0  0
    5.6147   -0.6850    4.0083 H   0  0  0  0  0  0  0  0  0  0  0  0
    5.5457    0.2416    2.5038 H   0  0  0  0  0  0  0  0  0  0  0  0
    6.9124   -0.7930    2.8148 H   0  0  0  0  0  0  0  0  0  0  0  0
    5.4882   -3.3719    3.7880 H   0  0  0  0  0  0  0  0  0  0  0  0
    6.1209   -3.8759    2.2158 H   0  0  0  0  0  0  0  0  0  0  0  0
    2.9290    0.2747   -3.2090 H   0  0  0  0  0  0  0  0  0  0  0  0
    4.6128    0.5782   -3.6223 H   0  0  0  0  0  0  0  0  0  0  0  0
    4.2192    0.1804   -1.9221 H   0  0  0  0  0  0  0  0  0  0  0  0
    2.4903   -1.4967   -4.5180 H   0  0  0  0  0  0  0  0  0  0  0  0
    3.6426   -2.8467   -4.7051 H   0  0  0  0  0  0  0  0  0  0  0  0
    4.0769   -1.1768   -5.2350 H   0  0  0  0  0  0  0  0  0  0  0  0
  1  2  2  0
  1 24  1  0
  1 25  1  0
  2  3  1  0
  4  2  1  1
  3 26  1  0
  3 27  1  0
  3 28  1  0
  4 10  1  0
  4 19  1  0
  4  5  1  0
  5  6  1  0
  5 29  1  0
  5 30  1  0
  6 21  1  0
  6  7  1  0
  6 31  1  6
  7  8  1  0
  7 21  1  0
  7 32  1  1
  8  9  1  0
  8 33  1  0
  8 34  1  0
  9 11  1  0
  9 10  1  0
  9 35  1  6
 10 11  1  0
 10 36  1  1
 11 20  1  0
 11 12  1  1
 12 13  1  0
 12 37  1  0
 12 38  1  0
 14 13  1  1
 13 39  1  0
 13 40  1  0
 14 18  1  0
 14 15  1  0
 14 20  1  0
 15 16  1  0
 15 41  1  0
 15 42  1  0
 16 17  1  1
 16 18  1  0
 16 19  1  0
 17 43  1  0
 17 44  1  0
 17 45  1  0
 18 46  1  0
 18 47  1  0
 21 22  1  0
 21 23  1  0
 22 48  1  0
 22 49  1  0
 22 50  1  0
 23 51  1  0
 23 52  1  0
 23 53  1  0
M  END
>  <i_m_ct_stereo_status>  (315) 
1

>  <s_m_source_file>  (315) 
/var/tmp/pbs.5076255.sched01/tmpgyl_4d9e/126kfdajayx.sdf

>  <i_m_source_file_index>  (315) 
36

>  <i_lp_mmshare_version>  (315) 
48012

>  <i_f3d_flags>  (315) 
0

>  <s_epik_input>  (315) 
W0NIM11DMShbQ0gzXSlbQ0BASF0oW0NIMl0yKVtDQEBIXTFbQ0gyXVtDQF0oQyg9W0NIMl0pW0NIM10pKFtDQEBIXTNbQ0BIXTJbQ0BdMzQ1KU9bQ0BAXTYoW0NIM10pW0NIMl1bQ0BAXShPNSkoW0NIMl02KVtDSDJdW0NIMl00

>  <s_epik_cmdline>  (315) 
J2VwaWtfcHl0aG9uJywgJy1waHQnLCAnMi4wJywgJy1waCcsICc3LjAnLCAnLXRuJywgJzgnLCAnLW1hJywgJzIwMCcsICctaW1hZScsICc8aW5maWxlLm1hZT4nLCAnLW9tYWUnLCAnPG91dGZpbGUubWFlPic=

>  <r_lp_tautomer_probability>  (315) 
1

>  <r_epik_Ionization_Penalty>  (315) 
2.50453e-11

>  <r_epik_Ionization_Penalty_Charging>  (315) 
0

>  <r_epik_Ionization_Penalty_Neutral>  (315) 
2.50453e-11

>  <r_epik_State_Penalty>  (315) 
-0

>  <r_epik_Charging_Adjusted_Penalty>  (315) 
0

>  <i_epik_Tot_Q>  (315) 
0

>  <i_epik_Tot_abs_Q>  (315) 
0

>  <s_lp_Force_Field>  (315) 
OPLS3e

>  <r_lp_Energy>  (315) 
106.128

>  <b_lp_Chiralities_Consistent>  (315) 
1

>  <s_lp_Variant>  (315) 
109:0-1

>  <s_i_glide_gridfile>  (315) 
pfpi4k_grid

>  <i_i_glide_lignum>  (315) 
36

>  <i_i_glide_rotatable_bonds>  (315) 
1

>  <r_i_docking_score>  (315) 
-2.53452

>  <r_i_glide_ligand_efficiency>  (315) 
-0.110196

>  <r_i_glide_ligand_efficiency_sa>  (315) 
-0.313384

>  <r_i_glide_ligand_efficiency_ln>  (315) 
-0.61287

>  <r_i_glide_gscore>  (315) 
-2.53452

>  <r_i_glide_lipo>  (315) 
-0.903765

>  <r_i_glide_hbond>  (315) 
0

>  <r_i_glide_metal>  (315) 
-0

>  <r_i_glide_rewards>  (315) 
-1.26503

>  <r_i_glide_evdw>  (315) 
-14.291

>  <r_i_glide_ecoul>  (315) 
1.07234

>  <r_i_glide_erotb>  (315) 
0.187981

>  <r_i_glide_esite>  (315) 
0

>  <r_i_glide_emodel>  (315) 
-14.5087

>  <r_i_glide_energy>  (315) 
-13.2187

>  <r_i_glide_einternal>  (315) 
0.0167014

>  <r_i_glide_intrahb_reward>  (315) 
-0

>  <i_i_glide_confnum>  (315) 
1

>  <i_i_glide_posenum>  (315) 
24

>  <r_i_glide_eff_state_penalty>  (315) 
0

>  <ligand_id>  (315) 
109

>  <original_smiles>  (315) 
C=C(C)C12CC3C(CC4C1C41CCC4(CC(C)(C4)O2)O1)C3(C)C

>  <smiles>  (315) 
[H]C([H])=C(C([H])([H])[H])C12OC3(C([H])([H])[H])C([H])([H])C4(OC5(C([H])([H])C4([H])[H])C([H])(C([H])([H])C4([H])C([H])(C1([H])[H])C4(C([H])([H])[H])C([H])([H])[H])C25[H])C3([H])[H]

$$$$
109:0:2
     RDKit          3D

 53 58  0  0  1  0  0  0  0  0999 V2000
    7.6498   -2.6892    0.6629 C   0  0  0  0  0  0  0  0  0  0  0  0
    6.6904   -3.6021    0.5940 C   0  0  0  0  0  0  0  0  0  0  0  0
    7.0801   -5.0529    0.8547 C   0  0  0  0  0  0  0  0  0  0  0  0
    5.2256   -3.2308    0.2052 C   0  0  1  0  0  0  0  0  0  0  0  0
    5.3746   -2.9335   -1.3281 C   0  0  0  0  0  0  0  0  0  0  0  0
    4.1672   -3.2206   -2.1893 C   0  0  1  0  0  0  0  0  0  0  0  0
    2.8949   -2.7030   -1.5819 C   0  0  2  0  0  0  0  0  0  0  0  0
    2.0352   -3.8519   -1.1374 C   0  0  0  0  0  0  0  0  0  0  0  0
    2.7828   -4.7021   -0.1006 C   0  0  1  0  0  0  0  0  0  0  0  0
    4.1735   -4.4216    0.5122 C   0  0  2  0  0  0  0  0  0  0  0  0
    2.8698   -4.2240    1.2912 C   0  0  2  0  0  0  0  0  0  0  0  0
    2.3972   -4.8739    2.5909 C   0  0  0  0  0  0  0  0  0  0  0  0
    2.2812   -3.6549    3.5319 C   0  0  0  0  0  0  0  0  0  0  0  0
    3.1963   -2.7079    2.8015 C   0  0  1  0  0  0  0  0  0  0  0  0
    3.5057   -1.2274    2.8269 C   0  0  0  0  0  0  0  0  0  0  0  0
    4.9058   -1.6021    2.2322 C   0  0  1  0  0  0  0  0  0  0  0  0
    6.0083   -0.6263    2.5888 C   0  0  0  0  0  0  0  0  0  0  0  0
    4.7078   -2.8635    3.0718 C   0  0  0  0  0  0  0  0  0  0  0  0
    4.9183   -1.9072    0.7928 O   0  0  0  0  0  0  0  0  0  0  0  0
    2.6742   -2.8648    1.4866 O   0  0  0  0  0  0  0  0  0  0  0  0
    3.2728   -2.2773   -2.9719 C   0  0  0  0  0  0  0  0  0  0  0  0
    3.7075   -0.8472   -3.2080 C   0  0  0  0  0  0  0  0  0  0  0  0
    2.4953   -2.7953   -4.1587 C   0  0  0  0  0  0  0  0  0  0  0  0
    8.6580   -2.9802    0.9237 H   0  0  0  0  0  0  0  0  0  0  0  0
    7.4508   -1.6269    0.4699 H   0  0  0  0  0  0  0  0  0  0  0  0
    6.7083   -5.7140    0.0762 H   0  0  0  0  0  0  0  0  0  0  0  0
    6.7281   -5.3993    1.8219 H   0  0  0  0  0  0  0  0  0  0  0  0
    8.1653   -5.1514    0.8488 H   0  0  0  0  0  0  0  0  0  0  0  0
    5.7476   -1.9198   -1.4958 H   0  0  0  0  0  0  0  0  0  0  0  0
    6.1472   -3.5807   -1.7394 H   0  0  0  0  0  0  0  0  0  0  0  0
    4.1845   -4.2561   -2.5704 H   0  0  0  0  0  0  0  0  0  0  0  0
    2.9636   -1.9058   -0.8255 H   0  0  0  0  0  0  0  0  0  0  0  0
    1.1267   -3.4595   -0.7248 H   0  0  0  0  0  0  0  0  0  0  0  0
    1.7405   -4.4834   -1.9669 H   0  0  0  0  0  0  0  0  0  0  0  0
    2.5381   -5.7681   -0.2080 H   0  0  0  0  0  0  0  0  0  0  0  0
    4.6843   -5.3629    0.7245 H   0  0  0  0  0  0  0  0  0  0  0  0
    1.4506   -5.3894    2.4548 H   0  0  0  0  0  0  0  0  0  0  0  0
    3.1345   -5.5943    2.9280 H   0  0  0  0  0  0  0  0  0  0  0  0
    1.2617   -3.2687    3.5590 H   0  0  0  0  0  0  0  0  0  0  0  0
    2.5966   -3.8767    4.5588 H   0  0  0  0  0  0  0  0  0  0  0  0
    2.8710   -0.6292    2.1860 H   0  0  0  0  0  0  0  0  0  0  0  0
    3.5329   -0.8260    3.8363 H   0  0  0  0  0  0  0  0  0  0  0  0
    5.8121   -0.1360    3.5567 H   0  0  0  0  0  0  0  0  0  0  0  0
    6.0138    0.1588    1.8545 H   0  0  0  0  0  0  0  0  0  0  0  0
    6.9975   -1.0639    2.5416 H   0  0  0  0  0  0  0  0  0  0  0  0
    4.9545   -2.7344    4.1262 H   0  0  0  0  0  0  0  0  0  0  0  0
    5.1774   -3.7728    2.7460 H   0  0  0  0  0  0  0  0  0  0  0  0
    2.8359   -0.2201   -3.4170 H   0  0  0  0  0  0  0  0  0  0  0  0
    4.4011   -0.7935   -4.0491 H   0  0  0  0  0  0  0  0  0  0  0  0
    4.2006   -0.4536   -2.3106 H   0  0  0  0  0  0  0  0  0  0  0  0
    1.5740   -2.2247   -4.2934 H   0  0  0  0  0  0  0  0  0  0  0  0
    2.2243   -3.8510   -4.0235 H   0  0  0  0  0  0  0  0  0  0  0  0
    3.1018   -2.7165   -5.0559 H   0  0  0  0  0  0  0  0  0  0  0  0
  1  2  2  0
  1 24  1  0
  1 25  1  0
  2  3  1  0
  4  2  1  1
  3 26  1  0
  3 27  1  0
  3 28  1  0
  4 10  1  0
  4 19  1  0
  4  5  1  0
  5  6  1  0
  5 29  1  0
  5 30  1  0
  6 21  1  0
  6  7  1  0
  6 31  1  6
  7  8  1  0
  7 21  1  0
  7 32  1  1
  8  9  1  0
  8 33  1  0
  8 34  1  0
  9 11  1  0
  9 10  1  0
  9 35  1  1
 10 11  1  0
 10 36  1  1
 11 20  1  0
 11 12  1  1
 12 13  1  0
 12 37  1  0
 12 38  1  0
 14 13  1  1
 13 39  1  0
 13 40  1  0
 14 18  1  0
 14 15  1  0
 14 20  1  0
 15 16  1  0
 15 41  1  0
 15 42  1  0
 16 17  1  1
 16 18  1  0
 16 19  1  0
 17 43  1  0
 17 44  1  0
 17 45  1  0
 18 46  1  0
 18 47  1  0
 21 22  1  0
 21 23  1  0
 22 48  1  0
 22 49  1  0
 22 50  1  0
 23 51  1  0
 23 52  1  0
 23 53  1  0
M  END
>  <i_m_ct_stereo_status>  (316) 
1

>  <s_m_source_file>  (316) 
/var/tmp/pbs.5076255.sched01/tmpgyl_4d9e/126kfdajayx.sdf

>  <i_m_source_file_index>  (316) 
36

>  <i_lp_mmshare_version>  (316) 
48012

>  <i_f3d_flags>  (316) 
0

>  <s_epik_input>  (316) 
W0NIM11DMShbQ0gzXSlbQ0BASF0oW0NIMl0yKVtDQEBIXTFbQ0gyXVtDQF0oQyg9W0NIMl0pW0NIM10pKFtDQEBIXTNbQ0BIXTJbQ0BdMzQ1KU9bQ0BAXTYoW0NIM10pW0NIMl1bQ0BAXShPNSkoW0NIMl02KVtDSDJdW0NIMl00

>  <s_epik_cmdline>  (316) 
J2VwaWtfcHl0aG9uJywgJy1waHQnLCAnMi4wJywgJy1waCcsICc3LjAnLCAnLXRuJywgJzgnLCAnLW1hJywgJzIwMCcsICctaW1hZScsICc8aW5maWxlLm1hZT4nLCAnLW9tYWUnLCAnPG91dGZpbGUubWFlPic=

>  <r_lp_tautomer_probability>  (316) 
1

>  <r_epik_Ionization_Penalty>  (316) 
2.50453e-11

>  <r_epik_Ionization_Penalty_Charging>  (316) 
0

>  <r_epik_Ionization_Penalty_Neutral>  (316) 
2.50453e-11

>  <r_epik_State_Penalty>  (316) 
-0

>  <r_epik_Charging_Adjusted_Penalty>  (316) 
0

>  <i_epik_Tot_Q>  (316) 
0

>  <i_epik_Tot_abs_Q>  (316) 
0

>  <s_lp_Force_Field>  (316) 
OPLS3e

>  <r_lp_Energy>  (316) 
106.128

>  <b_lp_Chiralities_Consistent>  (316) 
1

>  <s_lp_Variant>  (316) 
109:0-1

>  <s_i_glide_gridfile>  (316) 
pfpi4k_grid

>  <i_i_glide_lignum>  (316) 
36

>  <i_i_glide_rotatable_bonds>  (316) 
1

>  <r_i_docking_score>  (316) 
-2.47801

>  <r_i_glide_ligand_efficiency>  (316) 
-0.10774

>  <r_i_glide_ligand_efficiency_sa>  (316) 
-0.306397

>  <r_i_glide_ligand_efficiency_ln>  (316) 
-0.599205

>  <r_i_glide_gscore>  (316) 
-2.47801

>  <r_i_glide_lipo>  (316) 
-0.798306

>  <r_i_glide_hbond>  (316) 
0

>  <r_i_glide_metal>  (316) 
-0

>  <r_i_glide_rewards>  (316) 
-1.26503

>  <r_i_glide_evdw>  (316) 
-17.1854

>  <r_i_glide_ecoul>  (316) 
1.71081

>  <r_i_glide_erotb>  (316) 
0.187981

>  <r_i_glide_esite>  (316) 
0

>  <r_i_glide_emodel>  (316) 
-15.2347

>  <r_i_glide_energy>  (316) 
-15.4746

>  <r_i_glide_einternal>  (316) 
3.95523

>  <r_i_glide_intrahb_reward>  (316) 
-0

>  <i_i_glide_confnum>  (316) 
6

>  <i_i_glide_posenum>  (316) 
6

>  <r_i_glide_eff_state_penalty>  (316) 
0

>  <ligand_id>  (316) 
109

>  <original_smiles>  (316) 
C=C(C)C12CC3C(CC4C1C41CCC4(CC(C)(C4)O2)O1)C3(C)C

>  <smiles>  (316) 
[H]C([H])=C(C([H])([H])[H])C12OC3(C([H])([H])[H])C([H])([H])C4(OC5(C([H])([H])C4([H])[H])C([H])(C([H])([H])C4([H])C([H])(C1([H])[H])C4(C([H])([H])[H])C([H])([H])[H])C25[H])C3([H])[H]

$$$$
110:0:0
     RDKit          3D

 38 40  0  0  1  0  0  0  0  0999 V2000
   -8.3758   -7.8523   -9.6449 C   0  0  0  0  0  0  0  0  0  0  0  0
   -7.3516   -8.1973   -8.6163 N   0  0  2  0  0  0  0  0  0  0  0  0
   -7.0149   -9.6121   -8.5525 C   0  0  0  0  0  0  0  0  0  0  0  0
   -6.8123   -9.4200   -7.0496 C   0  0  0  0  0  0  0  0  0  0  0  0
   -7.3291  -10.5902   -6.2081 C   0  0  0  0  0  0  0  0  0  0  0  0
   -6.4072  -11.8160   -6.2396 C   0  0  0  0  0  0  0  0  0  0  0  0
   -4.9671  -11.4441   -5.8408 C   0  0  0  0  0  0  0  0  0  0  0  0
   -4.4269  -10.3164   -6.7157 C   0  0  0  0  0  0  0  0  0  0  0  0
   -5.3522   -9.1081   -6.6260 C   0  0  0  0  0  0  0  0  0  0  0  0
   -7.7817   -8.2192   -7.2091 C   0  0  1  0  0  0  0  0  0  0  0  0
   -7.5146   -6.8967   -6.4664 C   0  0  0  0  0  0  0  0  0  0  0  0
   -6.9608   -6.9590   -5.1731 C   0  0  0  0  0  0  0  0  0  0  0  0
   -6.6152   -5.7738   -4.4687 C   0  0  0  0  0  0  0  0  0  0  0  0
   -6.8901   -4.5307   -5.0345 C   0  0  0  0  0  0  0  0  0  0  0  0
   -7.5217   -4.4605   -6.3073 C   0  0  0  0  0  0  0  0  0  0  0  0
   -7.8332   -5.6433   -7.0159 C   0  0  0  0  0  0  0  0  0  0  0  0
   -9.2772   -8.4613   -9.5317 H   0  0  0  0  0  0  0  0  0  0  0  0
   -7.9881   -8.0588  -10.6487 H   0  0  0  0  0  0  0  0  0  0  0  0
   -8.6957   -6.8072   -9.6317 H   0  0  0  0  0  0  0  0  0  0  0  0
   -7.8486  -10.2681   -8.8368 H   0  0  0  0  0  0  0  0  0  0  0  0
   -6.1181   -9.8711   -9.1155 H   0  0  0  0  0  0  0  0  0  0  0  0
   -7.5073  -10.2401   -5.1907 H   0  0  0  0  0  0  0  0  0  0  0  0
   -8.3204  -10.9101   -6.5694 H   0  0  0  0  0  0  0  0  0  0  0  0
   -6.7931  -12.6044   -5.5855 H   0  0  0  0  0  0  0  0  0  0  0  0
   -6.3979  -12.2371   -7.2470 H   0  0  0  0  0  0  0  0  0  0  0  0
   -4.9583  -11.1163   -4.7995 H   0  0  0  0  0  0  0  0  0  0  0  0
   -4.3101  -12.3174   -5.8985 H   0  0  0  0  0  0  0  0  0  0  0  0
   -3.4588  -10.0217   -6.3261 H   0  0  0  0  0  0  0  0  0  0  0  0
   -4.2817  -10.6623   -7.7584 H   0  0  0  0  0  0  0  0  0  0  0  0
   -4.9297   -8.3083   -7.2564 H   0  0  0  0  0  0  0  0  0  0  0  0
   -5.2886   -8.7817   -5.5883 H   0  0  0  0  0  0  0  0  0  0  0  0
   -8.8270   -8.5254   -7.1120 H   0  0  0  0  0  0  0  0  0  0  0  0
   -6.8270   -7.9310   -4.7342 H   0  0  0  0  0  0  0  0  0  0  0  0
   -6.1514   -5.8580   -3.4974 H   0  0  0  0  0  0  0  0  0  0  0  0
   -6.6317   -3.6122   -4.5028 H   0  0  0  0  0  0  0  0  0  0  0  0
   -7.7756   -3.5160   -6.7518 H   0  0  0  0  0  0  0  0  0  0  0  0
   -8.2988   -5.5522   -7.9851 H   0  0  0  0  0  0  0  0  0  0  0  0
   -6.5004   -7.6557   -8.6657 H   0  0  0  0  0  0  0  0  0  0  0  0
  1  2  1  0
  1 17  1  0
  1 18  1  0
  1 19  1  0
  2 10  1  0
  2  3  1  0
  2 38  1  1
  3  4  1  0
  3 20  1  0
  3 21  1  0
  4  9  1  0
  4  5  1  0
  4 10  1  0
  5  6  1  0
  5 22  1  0
  5 23  1  0
  6  7  1  0
  6 24  1  0
  6 25  1  0
  7  8  1  0
  7 26  1  0
  7 27  1  0
  8  9  1  0
  8 28  1  0
  8 29  1  0
  9 30  1  0
  9 31  1  0
 10 11  1  0
 10 32  1  6
 11 16  1  0
 11 12  2  0
 12 13  1  0
 12 33  1  0
 13 14  2  0
 13 34  1  0
 14 15  1  0
 14 35  1  0
 15 16  2  0
 15 36  1  0
 16 37  1  0
M  CHG  1   2   1
M  END
>  <i_m_ct_stereo_status>  (317) 
1

>  <s_m_source_file>  (317) 
/var/tmp/pbs.5076255.sched01/tmpgyl_4d9e/126kfdajayx.sdf

>  <i_m_source_file_index>  (317) 
37

>  <i_lp_mmshare_version>  (317) 
48012

>  <i_f3d_flags>  (317) 
0

>  <s_epik_input>  (317) 
W2NIXTFbY0hdW2NIXVtjSF1bY0hdYzFbQ0BIXTJOKFtDSDNdKVtDSDJdQzIzW0NIMl1bQ0gyXVtDSDJdW0NIMl1bQ0gyXTM=

>  <s_epik_cmdline>  (317) 
J2VwaWtfcHl0aG9uJywgJy1waHQnLCAnMi4wJywgJy1waCcsICc3LjAnLCAnLXRuJywgJzgnLCAnLW1hJywgJzIwMCcsICctaW1hZScsICc8aW5maWxlLm1hZT4nLCAnLW9tYWUnLCAnPG91dGZpbGUubWFlPic=

>  <r_epik_Ionization_Penalty>  (317) 
0.00724569

>  <r_epik_Ionization_Penalty_Charging>  (317) 
0.00724569

>  <r_epik_Ionization_Penalty_Neutral>  (317) 
0

>  <r_epik_State_Penalty>  (317) 
0.00540302

>  <r_epik_Charging_Adjusted_Penalty>  (317) 
0.0126487

>  <i_epik_Tot_Q>  (317) 
1

>  <i_epik_Tot_abs_Q>  (317) 
1

>  <s_lp_Force_Field>  (317) 
OPLS3e

>  <r_lp_Energy>  (317) 
31.7618

>  <b_lp_Chiralities_Consistent>  (317) 
1

>  <s_lp_Variant>  (317) 
110:0-1

>  <s_i_glide_gridfile>  (317) 
pfpi4k_grid

>  <i_i_glide_lignum>  (317) 
37

>  <i_i_glide_rotatable_bonds>  (317) 
1

>  <r_i_docking_score>  (317) 
-5.75457

>  <r_i_glide_ligand_efficiency>  (317) 
-0.35966

>  <r_i_glide_ligand_efficiency_sa>  (317) 
-0.906288

>  <r_i_glide_ligand_efficiency_ln>  (317) 
-1.52536

>  <r_i_glide_gscore>  (317) 
-5.75457

>  <r_i_glide_lipo>  (317) 
-2.57224

>  <r_i_glide_hbond>  (317) 
0

>  <r_i_glide_metal>  (317) 
-0

>  <r_i_glide_rewards>  (317) 
-2.5577

>  <r_i_glide_evdw>  (317) 
-17.6221

>  <r_i_glide_ecoul>  (317) 
-0.676766

>  <r_i_glide_erotb>  (317) 
0.357988

>  <r_i_glide_esite>  (317) 
0

>  <r_i_glide_emodel>  (317) 
-21.4202

>  <r_i_glide_energy>  (317) 
-18.2988

>  <r_i_glide_einternal>  (317) 
3.56797

>  <r_i_glide_intrahb_reward>  (317) 
-0

>  <i_i_glide_confnum>  (317) 
3

>  <i_i_glide_posenum>  (317) 
2

>  <r_i_glide_eff_state_penalty>  (317) 
0

>  <ligand_id>  (317) 
110

>  <original_smiles>  (317) 
CN1CC2(CCCCC2)C1c1ccccc1

>  <smiles>  (317) 
[H]c1c([H])c([H])c(C2([H])C3(C([H])([H])C([H])([H])C([H])([H])C([H])([H])C3([H])[H])C([H])([H])[N+]2([H])C([H])([H])[H])c([H])c1[H]

$$$$
110:0:1
     RDKit          3D

 38 40  0  0  1  0  0  0  0  0999 V2000
   -5.6796   -9.5449   -7.7051 C   0  0  0  0  0  0  0  0  0  0  0  0
   -6.2670   -8.1818   -7.5311 N   0  0  2  0  0  0  0  0  0  0  0  0
   -5.7284   -7.4738   -6.3739 C   0  0  0  0  0  0  0  0  0  0  0  0
   -7.0916   -6.7918   -6.2529 C   0  0  0  0  0  0  0  0  0  0  0  0
   -7.4947   -6.6201   -4.8161 C   0  0  0  0  0  0  0  0  0  0  0  0
   -6.8519   -5.4457   -4.0686 C   0  0  0  0  0  0  0  0  0  0  0  0
   -7.1283   -4.1492   -4.8347 C   0  0  0  0  0  0  0  0  0  0  0  0
   -6.6170   -4.3008   -6.2464 C   0  0  0  0  0  0  0  0  0  0  0  0
   -7.3034   -5.4385   -6.9366 C   0  0  0  0  0  0  0  0  0  0  0  0
   -7.6332   -8.0634   -6.9875 C   0  0  1  0  0  0  0  0  0  0  0  0
   -8.7239   -7.9492   -8.0765 C   0  0  0  0  0  0  0  0  0  0  0  0
   -9.7798   -7.0042   -7.9554 C   0  0  0  0  0  0  0  0  0  0  0  0
  -10.7432   -6.8094   -8.9507 C   0  0  0  0  0  0  0  0  0  0  0  0
  -10.7096   -7.6103  -10.0999 C   0  0  0  0  0  0  0  0  0  0  0  0
   -9.7086   -8.6029  -10.2210 C   0  0  0  0  0  0  0  0  0  0  0  0
   -8.7286   -8.7778   -9.2234 C   0  0  0  0  0  0  0  0  0  0  0  0
   -5.7713  -10.1436   -6.7911 H   0  0  0  0  0  0  0  0  0  0  0  0
   -4.6155   -9.4565   -7.9319 H   0  0  0  0  0  0  0  0  0  0  0  0
   -6.1130  -10.1264   -8.5207 H   0  0  0  0  0  0  0  0  0  0  0  0
   -5.4632   -8.1336   -5.5381 H   0  0  0  0  0  0  0  0  0  0  0  0
   -4.8828   -6.8066   -6.5229 H   0  0  0  0  0  0  0  0  0  0  0  0
   -8.5751   -6.4090   -4.7592 H   0  0  0  0  0  0  0  0  0  0  0  0
   -7.2319   -7.5548   -4.3511 H   0  0  0  0  0  0  0  0  0  0  0  0
   -7.2754   -5.3528   -3.0586 H   0  0  0  0  0  0  0  0  0  0  0  0
   -5.7837   -5.6587   -3.9336 H   0  0  0  0  0  0  0  0  0  0  0  0
   -8.2072   -3.9428   -4.8087 H   0  0  0  0  0  0  0  0  0  0  0  0
   -6.6023   -3.3540   -4.3192 H   0  0  0  0  0  0  0  0  0  0  0  0
   -6.9072   -3.4623   -6.8890 H   0  0  0  0  0  0  0  0  0  0  0  0
   -5.5516   -4.3538   -6.2004 H   0  0  0  0  0  0  0  0  0  0  0  0
   -7.0108   -5.5966   -7.9700 H   0  0  0  0  0  0  0  0  0  0  0  0
   -8.3413   -5.0959   -6.9536 H   0  0  0  0  0  0  0  0  0  0  0  0
   -7.8499   -8.8952   -6.3081 H   0  0  0  0  0  0  0  0  0  0  0  0
   -9.9154   -6.3410   -7.1181 H   0  0  0  0  0  0  0  0  0  0  0  0
  -11.4909   -6.0481   -8.7913 H   0  0  0  0  0  0  0  0  0  0  0  0
  -11.4750   -7.4865  -10.8564 H   0  0  0  0  0  0  0  0  0  0  0  0
   -9.6799   -9.2617  -11.0795 H   0  0  0  0  0  0  0  0  0  0  0  0
   -8.0004   -9.5634   -9.3667 H   0  0  0  0  0  0  0  0  0  0  0  0
   -6.2374   -7.5511   -8.3227 H   0  0  0  0  0  0  0  0  0  0  0  0
  1  2  1  0
  1 17  1  0
  1 18  1  0
  1 19  1  0
  2 10  1  0
  2  3  1  0
  2 38  1  6
  3  4  1  0
  3 20  1  0
  3 21  1  0
  4  9  1  0
  4  5  1  0
  4 10  1  0
  5  6  1  0
  5 22  1  0
  5 23  1  0
  6  7  1  0
  6 24  1  0
  6 25  1  0
  7  8  1  0
  7 26  1  0
  7 27  1  0
  8  9  1  0
  8 28  1  0
  8 29  1  0
  9 30  1  0
  9 31  1  0
 10 11  1  0
 10 32  1  1
 11 16  1  0
 11 12  2  0
 12 13  1  0
 12 33  1  0
 13 14  2  0
 13 34  1  0
 14 15  1  0
 14 35  1  0
 15 16  2  0
 15 36  1  0
 16 37  1  0
M  CHG  1   2   1
M  END
>  <i_m_ct_stereo_status>  (318) 
1

>  <s_m_source_file>  (318) 
/var/tmp/pbs.5076255.sched01/tmpgyl_4d9e/126kfdajayx.sdf

>  <i_m_source_file_index>  (318) 
37

>  <i_lp_mmshare_version>  (318) 
48012

>  <i_f3d_flags>  (318) 
0

>  <s_epik_input>  (318) 
W2NIXTFbY0hdW2NIXVtjSF1bY0hdYzFbQ0BIXTJOKFtDSDNdKVtDSDJdQzIzW0NIMl1bQ0gyXVtDSDJdW0NIMl1bQ0gyXTM=

>  <s_epik_cmdline>  (318) 
J2VwaWtfcHl0aG9uJywgJy1waHQnLCAnMi4wJywgJy1waCcsICc3LjAnLCAnLXRuJywgJzgnLCAnLW1hJywgJzIwMCcsICctaW1hZScsICc8aW5maWxlLm1hZT4nLCAnLW9tYWUnLCAnPG91dGZpbGUubWFlPic=

>  <r_epik_Ionization_Penalty>  (318) 
0.00724569

>  <r_epik_Ionization_Penalty_Charging>  (318) 
0.00724569

>  <r_epik_Ionization_Penalty_Neutral>  (318) 
0

>  <r_epik_State_Penalty>  (318) 
0.00540302

>  <r_epik_Charging_Adjusted_Penalty>  (318) 
0.0126487

>  <i_epik_Tot_Q>  (318) 
1

>  <i_epik_Tot_abs_Q>  (318) 
1

>  <s_lp_Force_Field>  (318) 
OPLS3e

>  <r_lp_Energy>  (318) 
31.7618

>  <b_lp_Chiralities_Consistent>  (318) 
1

>  <s_lp_Variant>  (318) 
110:0-1

>  <s_i_glide_gridfile>  (318) 
pfpi4k_grid

>  <i_i_glide_lignum>  (318) 
37

>  <i_i_glide_rotatable_bonds>  (318) 
1

>  <r_i_docking_score>  (318) 
-4.27383

>  <r_i_glide_ligand_efficiency>  (318) 
-0.267115

>  <r_i_glide_ligand_efficiency_sa>  (318) 
-0.673087

>  <r_i_glide_ligand_efficiency_ln>  (318) 
-1.13286

>  <r_i_glide_gscore>  (318) 
-4.27383

>  <r_i_glide_lipo>  (318) 
-1.95725

>  <r_i_glide_hbond>  (318) 
0

>  <r_i_glide_metal>  (318) 
-0

>  <r_i_glide_rewards>  (318) 
-2.56994

>  <r_i_glide_evdw>  (318) 
-2.65388

>  <r_i_glide_ecoul>  (318) 
0.187132

>  <r_i_glide_erotb>  (318) 
0.357988

>  <r_i_glide_esite>  (318) 
0

>  <r_i_glide_emodel>  (318) 
-2.64363

>  <r_i_glide_energy>  (318) 
-2.46675

>  <r_i_glide_einternal>  (318) 
3.70283

>  <r_i_glide_intrahb_reward>  (318) 
-0

>  <i_i_glide_confnum>  (318) 
3

>  <i_i_glide_posenum>  (318) 
17

>  <r_i_glide_eff_state_penalty>  (318) 
0

>  <ligand_id>  (318) 
110

>  <original_smiles>  (318) 
CN1CC2(CCCCC2)C1c1ccccc1

>  <smiles>  (318) 
[H]c1c([H])c([H])c(C2([H])C3(C([H])([H])C([H])([H])C([H])([H])C([H])([H])C3([H])[H])C([H])([H])[N+]2([H])C([H])([H])[H])c([H])c1[H]

$$$$
111:0:0
     RDKit          3D

 52 58  0  0  1  0  0  0  0  0999 V2000
    3.0062    0.8687    1.6869 O   0  0  0  0  0  0  0  0  0  0  0  0
    3.7566   -0.1041    1.6265 C   0  0  0  0  0  0  0  0  0  0  0  0
    4.7248   -0.4996    2.7038 C   0  0  0  0  0  0  0  0  0  0  0  0
    4.8157   -2.0086    2.4940 C   0  0  0  0  0  0  0  0  0  0  0  0
    4.5780   -2.3661    0.9827 C   0  0  1  0  0  0  0  0  0  0  0  0
    3.8422   -1.0493    0.4538 C   0  0  2  0  0  0  0  0  0  0  0  0
    4.5975   -0.3455   -0.5651 O   0  0  0  0  0  0  0  0  0  0  0  0
    4.8144   -1.1584   -1.6391 C   0  0  0  0  0  0  0  0  0  0  0  0
    4.2106   -0.9621   -2.9065 C   0  0  0  0  0  0  0  0  0  0  0  0
    3.9177    0.2697   -3.3972 O   0  0  0  0  0  0  0  0  0  0  0  0
    3.7509   -2.0603   -3.6502 C   0  0  0  0  0  0  0  0  0  0  0  0
    3.7058   -3.3156   -3.0353 C   0  0  0  0  0  0  0  0  0  0  0  0
    4.3304   -3.4964   -1.7829 C   0  0  0  0  0  0  0  0  0  0  0  0
    5.1453   -2.4691   -1.2843 C   0  0  0  0  0  0  0  0  0  0  0  0
    5.8006   -2.6084    0.1053 C   0  0  1  0  0  0  0  0  0  0  0  0
    7.1188   -1.8753    0.4398 C   0  0  0  0  0  0  0  0  0  0  0  0
    7.8906   -3.1883    0.3822 C   0  0  0  0  0  0  0  0  0  0  0  0
    6.5603   -3.9392    0.3579 C   0  0  1  0  0  0  0  0  0  0  0  0
    6.0791   -4.7578    1.5591 C   0  0  0  0  0  0  0  0  0  0  0  0
    4.5896   -4.8747    1.5634 N   0  0  1  0  0  0  0  0  0  0  0  0
    4.0161   -5.2726    2.8744 C   0  0  0  0  0  0  0  0  0  0  0  0
    2.9119   -6.3019    2.7125 C   0  0  0  0  0  0  0  0  0  0  0  0
    1.4686   -5.8577    2.6190 C   0  0  0  0  0  0  0  0  0  0  0  0
    1.9547   -6.5556    3.8595 C   0  0  0  0  0  0  0  0  0  0  0  0
    3.8587   -3.7733    0.8344 C   0  0  2  0  0  0  0  0  0  0  0  0
    3.7562   -4.3310   -0.6363 C   0  0  0  0  0  0  0  0  0  0  0  0
    5.6879   -0.0146    2.5257 H   0  0  0  0  0  0  0  0  0  0  0  0
    4.3609   -0.2262    3.6923 H   0  0  0  0  0  0  0  0  0  0  0  0
    5.7409   -2.3899    2.9183 H   0  0  0  0  0  0  0  0  0  0  0  0
    3.9921   -2.4035    3.0847 H   0  0  0  0  0  0  0  0  0  0  0  0
    2.8392   -1.2618    0.0878 H   0  0  0  0  0  0  0  0  0  0  0  0
    3.2658    0.7449   -2.8971 H   0  0  0  0  0  0  0  0  0  0  0  0
    3.2173   -1.8888   -4.5737 H   0  0  0  0  0  0  0  0  0  0  0  0
    3.0383   -4.0571   -3.4540 H   0  0  0  0  0  0  0  0  0  0  0  0
    7.4388   -1.1421   -0.2874 H   0  0  0  0  0  0  0  0  0  0  0  0
    7.1529   -1.4569    1.4418 H   0  0  0  0  0  0  0  0  0  0  0  0
    8.4554   -3.2900   -0.5454 H   0  0  0  0  0  0  0  0  0  0  0  0
    8.5057   -3.4122    1.2554 H   0  0  0  0  0  0  0  0  0  0  0  0
    6.5462   -4.5446   -0.5482 H   0  0  0  0  0  0  0  0  0  0  0  0
    6.5168   -5.7608    1.5442 H   0  0  0  0  0  0  0  0  0  0  0  0
    6.4322   -4.3095    2.4857 H   0  0  0  0  0  0  0  0  0  0  0  0
    4.7869   -5.7238    3.5003 H   0  0  0  0  0  0  0  0  0  0  0  0
    3.6228   -4.4293    3.4323 H   0  0  0  0  0  0  0  0  0  0  0  0
    3.1981   -7.1952    2.1517 H   0  0  0  0  0  0  0  0  0  0  0  0
    1.2710   -4.7881    2.6867 H   0  0  0  0  0  0  0  0  0  0  0  0
    0.8223   -6.4182    1.9455 H   0  0  0  0  0  0  0  0  0  0  0  0
    1.5986   -7.5723    4.0181 H   0  0  0  0  0  0  0  0  0  0  0  0
    2.0695   -5.9587    4.7636 H   0  0  0  0  0  0  0  0  0  0  0  0
    2.8436   -3.6930    1.2265 H   0  0  0  0  0  0  0  0  0  0  0  0
    2.7000   -4.5113   -0.8445 H   0  0  0  0  0  0  0  0  0  0  0  0
    4.2254   -5.3152   -0.7235 H   0  0  0  0  0  0  0  0  0  0  0  0
    4.4282   -5.6853    0.9850 H   0  0  0  0  0  0  0  0  0  0  0  0
  1  2  2  0
  2  6  1  0
  2  3  1  0
  3  4  1  0
  3 27  1  0
  3 28  1  0
  5  4  1  1
  4 29  1  0
  4 30  1  0
  5 15  1  0
  5 25  1  0
  5  6  1  0
  6  7  1  0
  6 31  1  6
  7  8  1  0
  8 14  2  0
  8  9  1  0
  9 10  1  0
  9 11  2  0
 10 32  1  0
 11 12  1  0
 11 33  1  0
 12 13  2  0
 12 34  1  0
 13 26  1  0
 13 14  1  0
 14 15  1  0
 15 18  1  0
 15 16  1  1
 16 17  1  0
 16 35  1  0
 16 36  1  0
 17 18  1  0
 17 37  1  0
 17 38  1  0
 18 19  1  0
 18 39  1  6
 19 20  1  0
 19 40  1  0
 19 41  1  0
 20 21  1  0
 20 25  1  0
 20 52  1  6
 21 22  1  0
 21 42  1  0
 21 43  1  0
 22 24  1  0
 22 23  1  0
 22 44  1  0
 23 24  1  0
 23 45  1  0
 23 46  1  0
 24 47  1  0
 24 48  1  0
 25 26  1  0
 25 49  1  1
 26 50  1  0
 26 51  1  0
M  CHG  1  20   1
M  END
>  <i_m_ct_stereo_status>  (319) 
1

>  <s_m_source_file>  (319) 
/var/tmp/pbs.5076255.sched01/tmpgyl_4d9e/126kfdajayx.sdf

>  <i_m_source_file_index>  (319) 
38

>  <i_lp_mmshare_version>  (319) 
48012

>  <i_f3d_flags>  (319) 
0

>  <s_epik_input>  (319) 
W0NIMl0xW0NIMl1DKD1PKVtDQEhdMk9jKGMzW0NAXTQ1W0NAQF0xMjYpYyhbT0hdKVtjSF1bY0hdYzNbQ0gyXVtDQEhdNk4oW0NIMl1bQ0BASF01W0NIMl1bQ0gyXTQpW0NIMl1bQ0hdN1tDSDJdW0NIMl03

>  <s_epik_cmdline>  (319) 
J2VwaWtfcHl0aG9uJywgJy1waHQnLCAnMi4wJywgJy1waCcsICc3LjAnLCAnLXRuJywgJzgnLCAnLW1hJywgJzIwMCcsICctaW1hZScsICc8aW5maWxlLm1hZT4nLCAnLW9tYWUnLCAnPG91dGZpbGUubWFlPic=

>  <r_lp_tautomer_probability>  (319) 
1

>  <r_epik_Ionization_Penalty>  (319) 
0.0126309

>  <r_epik_Ionization_Penalty_Charging>  (319) 
0.0102891

>  <r_epik_Ionization_Penalty_Neutral>  (319) 
0.00234176

>  <r_epik_State_Penalty>  (319) 
0.00786035

>  <r_epik_Charging_Adjusted_Penalty>  (319) 
0.0181494

>  <i_epik_Tot_Q>  (319) 
1

>  <i_epik_Tot_abs_Q>  (319) 
1

>  <s_lp_Force_Field>  (319) 
OPLS3e

>  <r_lp_Energy>  (319) 
132.907

>  <b_lp_Chiralities_Consistent>  (319) 
1

>  <s_lp_Variant>  (319) 
111:0-1

>  <s_i_glide_gridfile>  (319) 
pfpi4k_grid

>  <i_i_glide_lignum>  (319) 
38

>  <i_i_glide_rotatable_bonds>  (319) 
3

>  <r_i_docking_score>  (319) 
-3.64543

>  <r_i_glide_ligand_efficiency>  (319) 
-0.140209

>  <r_i_glide_ligand_efficiency_sa>  (319) 
-0.415368

>  <r_i_glide_ligand_efficiency_ln>  (319) 
-0.856116

>  <r_i_glide_gscore>  (319) 
-3.64543

>  <r_i_glide_lipo>  (319) 
-0.896328

>  <r_i_glide_hbond>  (319) 
0

>  <r_i_glide_metal>  (319) 
-0

>  <r_i_glide_rewards>  (319) 
-1.04485

>  <r_i_glide_evdw>  (319) 
-26.2799

>  <r_i_glide_ecoul>  (319) 
-4.6502

>  <r_i_glide_erotb>  (319) 
0.307281

>  <r_i_glide_esite>  (319) 
0

>  <r_i_glide_emodel>  (319) 
-37.1301

>  <r_i_glide_energy>  (319) 
-30.9301

>  <r_i_glide_einternal>  (319) 
4.46409

>  <r_i_glide_intrahb_reward>  (319) 
-0

>  <i_i_glide_confnum>  (319) 
4

>  <i_i_glide_posenum>  (319) 
11

>  <r_i_glide_eff_state_penalty>  (319) 
0

>  <ligand_id>  (319) 
111

>  <original_smiles>  (319) 
O=C1CCC23C1Oc1c(O)ccc4c1C21CCC1CN(CC1CC1)C3C4

>  <smiles>  (319) 
[H]Oc1c([H])c([H])c2c3c1OC1([H])C(=O)C([H])([H])C([H])([H])C14C31C([H])([H])C([H])([H])C1([H])C([H])([H])[N+]([H])(C([H])([H])C1([H])C([H])([H])C1([H])[H])C4([H])C2([H])[H]

$$$$
111:0:1
     RDKit          3D

 52 58  0  0  1  0  0  0  0  0999 V2000
    3.0082    0.8287    1.6552 O   0  0  0  0  0  0  0  0  0  0  0  0
    3.7647   -0.1377    1.5994 C   0  0  0  0  0  0  0  0  0  0  0  0
    4.7332   -0.5166    2.6824 C   0  0  0  0  0  0  0  0  0  0  0  0
    4.8401   -2.0246    2.4801 C   0  0  0  0  0  0  0  0  0  0  0  0
    4.6146   -2.3925    0.9703 C   0  0  1  0  0  0  0  0  0  0  0  0
    3.8608   -1.0896    0.4318 C   0  0  2  0  0  0  0  0  0  0  0  0
    4.6004   -0.3809   -0.5933 O   0  0  0  0  0  0  0  0  0  0  0  0
    4.8574   -1.2016   -1.6499 C   0  0  0  0  0  0  0  0  0  0  0  0
    4.2706   -1.0214   -2.9221 C   0  0  0  0  0  0  0  0  0  0  0  0
    3.9873    0.2154   -3.3911 O   0  0  0  0  0  0  0  0  0  0  0  0
    3.8233   -2.1214   -3.6699 C   0  0  0  0  0  0  0  0  0  0  0  0
    3.7874   -3.3759   -3.0508 C   0  0  0  0  0  0  0  0  0  0  0  0
    4.4065   -3.5463   -1.7912 C   0  0  0  0  0  0  0  0  0  0  0  0
    5.2013   -2.5061   -1.2888 C   0  0  0  0  0  0  0  0  0  0  0  0
    5.8469   -2.6254    0.1045 C   0  0  1  0  0  0  0  0  0  0  0  0
    7.1554   -1.8759    0.4410 C   0  0  0  0  0  0  0  0  0  0  0  0
    7.9411   -3.1806    0.3944 C   0  0  0  0  0  0  0  0  0  0  0  0
    6.6185   -3.9463    0.3684 C   0  0  1  0  0  0  0  0  0  0  0  0
    6.1406   -4.7655    1.5683 C   0  0  0  0  0  0  0  0  0  0  0  0
    4.6534   -4.8980    1.5646 N   0  0  1  0  0  0  0  0  0  0  0  0
    4.0757   -5.2959    2.8723 C   0  0  0  0  0  0  0  0  0  0  0  0
    2.9588   -6.3101    2.7067 C   0  0  0  0  0  0  0  0  0  0  0  0
    1.5227   -5.8481    2.5863 C   0  0  0  0  0  0  0  0  0  0  0  0
    1.9799   -6.5361    3.8421 C   0  0  0  0  0  0  0  0  0  0  0  0
    3.9157   -3.8103    0.8234 C   0  0  2  0  0  0  0  0  0  0  0  0
    3.8307   -4.3804   -0.6440 C   0  0  0  0  0  0  0  0  0  0  0  0
    5.6910   -0.0206    2.5076 H   0  0  0  0  0  0  0  0  0  0  0  0
    4.3579   -0.2421    3.6671 H   0  0  0  0  0  0  0  0  0  0  0  0
    5.7663   -2.3940    2.9128 H   0  0  0  0  0  0  0  0  0  0  0  0
    4.0155   -2.4236    3.0665 H   0  0  0  0  0  0  0  0  0  0  0  0
    2.8620   -1.3160    0.0618 H   0  0  0  0  0  0  0  0  0  0  0  0
    3.9703    0.8679   -2.7073 H   0  0  0  0  0  0  0  0  0  0  0  0
    3.2901   -1.9535   -4.5932 H   0  0  0  0  0  0  0  0  0  0  0  0
    3.1305   -4.1259   -3.4727 H   0  0  0  0  0  0  0  0  0  0  0  0
    7.4710   -1.1434   -0.2880 H   0  0  0  0  0  0  0  0  0  0  0  0
    7.1781   -1.4511    1.4401 H   0  0  0  0  0  0  0  0  0  0  0  0
    8.5133   -3.2804   -0.5298 H   0  0  0  0  0  0  0  0  0  0  0  0
    8.5533   -3.3934    1.2724 H   0  0  0  0  0  0  0  0  0  0  0  0
    6.6090   -4.5552   -0.5348 H   0  0  0  0  0  0  0  0  0  0  0  0
    6.5905   -5.7615    1.5620 H   0  0  0  0  0  0  0  0  0  0  0  0
    6.4830   -4.3058    2.4918 H   0  0  0  0  0  0  0  0  0  0  0  0
    4.8408   -5.7601    3.4947 H   0  0  0  0  0  0  0  0  0  0  0  0
    3.6942   -4.4512    3.4368 H   0  0  0  0  0  0  0  0  0  0  0  0
    3.2393   -7.2140    2.1601 H   0  0  0  0  0  0  0  0  0  0  0  0
    1.3390   -4.7750    2.6386 H   0  0  0  0  0  0  0  0  0  0  0  0
    0.8799   -6.4066    1.9072 H   0  0  0  0  0  0  0  0  0  0  0  0
    1.6046   -7.5448    4.0082 H   0  0  0  0  0  0  0  0  0  0  0  0
    2.0887   -5.9285    4.7399 H   0  0  0  0  0  0  0  0  0  0  0  0
    2.8983   -3.7356    1.2057 H   0  0  0  0  0  0  0  0  0  0  0  0
    2.7767   -4.5686   -0.8554 H   0  0  0  0  0  0  0  0  0  0  0  0
    4.3061   -5.3615   -0.7235 H   0  0  0  0  0  0  0  0  0  0  0  0
    4.5052   -5.7141    0.9888 H   0  0  0  0  0  0  0  0  0  0  0  0
  1  2  2  0
  2  6  1  0
  2  3  1  0
  3  4  1  0
  3 27  1  0
  3 28  1  0
  5  4  1  1
  4 29  1  0
  4 30  1  0
  5 15  1  0
  5 25  1  0
  5  6  1  0
  6  7  1  0
  6 31  1  6
  7  8  1  0
  8 14  2  0
  8  9  1  0
  9 10  1  0
  9 11  2  0
 10 32  1  0
 11 12  1  0
 11 33  1  0
 12 13  2  0
 12 34  1  0
 13 26  1  0
 13 14  1  0
 14 15  1  0
 15 18  1  0
 15 16  1  6
 16 17  1  0
 16 35  1  0
 16 36  1  0
 17 18  1  0
 17 37  1  0
 17 38  1  0
 18 19  1  0
 18 39  1  6
 19 20  1  0
 19 40  1  0
 19 41  1  0
 20 21  1  0
 20 25  1  0
 20 52  1  6
 21 22  1  0
 21 42  1  0
 21 43  1  0
 22 24  1  0
 22 23  1  0
 22 44  1  0
 23 24  1  0
 23 45  1  0
 23 46  1  0
 24 47  1  0
 24 48  1  0
 25 26  1  0
 25 49  1  1
 26 50  1  0
 26 51  1  0
M  CHG  1  20   1
M  END
>  <i_m_ct_stereo_status>  (320) 
1

>  <s_m_source_file>  (320) 
/var/tmp/pbs.5076255.sched01/tmpgyl_4d9e/126kfdajayx.sdf

>  <i_m_source_file_index>  (320) 
38

>  <i_lp_mmshare_version>  (320) 
48012

>  <i_f3d_flags>  (320) 
0

>  <s_epik_input>  (320) 
W0NIMl0xW0NIMl1DKD1PKVtDQEhdMk9jKGMzW0NAXTQ1W0NAQF0xMjYpYyhbT0hdKVtjSF1bY0hdYzNbQ0gyXVtDQEhdNk4oW0NIMl1bQ0BASF01W0NIMl1bQ0gyXTQpW0NIMl1bQ0hdN1tDSDJdW0NIMl03

>  <s_epik_cmdline>  (320) 
J2VwaWtfcHl0aG9uJywgJy1waHQnLCAnMi4wJywgJy1waCcsICc3LjAnLCAnLXRuJywgJzgnLCAnLW1hJywgJzIwMCcsICctaW1hZScsICc8aW5maWxlLm1hZT4nLCAnLW9tYWUnLCAnPG91dGZpbGUubWFlPic=

>  <r_lp_tautomer_probability>  (320) 
1

>  <r_epik_Ionization_Penalty>  (320) 
0.0126309

>  <r_epik_Ionization_Penalty_Charging>  (320) 
0.0102891

>  <r_epik_Ionization_Penalty_Neutral>  (320) 
0.00234176

>  <r_epik_State_Penalty>  (320) 
0.00786035

>  <r_epik_Charging_Adjusted_Penalty>  (320) 
0.0181494

>  <i_epik_Tot_Q>  (320) 
1

>  <i_epik_Tot_abs_Q>  (320) 
1

>  <s_lp_Force_Field>  (320) 
OPLS3e

>  <r_lp_Energy>  (320) 
132.907

>  <b_lp_Chiralities_Consistent>  (320) 
1

>  <s_lp_Variant>  (320) 
111:0-1

>  <s_i_glide_gridfile>  (320) 
pfpi4k_grid

>  <i_i_glide_lignum>  (320) 
38

>  <i_i_glide_rotatable_bonds>  (320) 
3

>  <r_i_docking_score>  (320) 
-3.35135

>  <r_i_glide_ligand_efficiency>  (320) 
-0.128898

>  <r_i_glide_ligand_efficiency_sa>  (320) 
-0.38186

>  <r_i_glide_ligand_efficiency_ln>  (320) 
-0.787053

>  <r_i_glide_gscore>  (320) 
-3.35135

>  <r_i_glide_lipo>  (320) 
-0.875585

>  <r_i_glide_hbond>  (320) 
0

>  <r_i_glide_metal>  (320) 
-0

>  <r_i_glide_rewards>  (320) 
-1.04577

>  <r_i_glide_evdw>  (320) 
-26.0217

>  <r_i_glide_ecoul>  (320) 
-2.90794

>  <r_i_glide_erotb>  (320) 
0.307281

>  <r_i_glide_esite>  (320) 
0

>  <r_i_glide_emodel>  (320) 
-36.3472

>  <r_i_glide_energy>  (320) 
-28.9296

>  <r_i_glide_einternal>  (320) 
1.77178

>  <r_i_glide_intrahb_reward>  (320) 
-0

>  <i_i_glide_confnum>  (320) 
4

>  <i_i_glide_posenum>  (320) 
23

>  <r_i_glide_eff_state_penalty>  (320) 
0

>  <ligand_id>  (320) 
111

>  <original_smiles>  (320) 
O=C1CCC23C1Oc1c(O)ccc4c1C21CCC1CN(CC1CC1)C3C4

>  <smiles>  (320) 
[H]Oc1c([H])c([H])c2c3c1OC1([H])C(=O)C([H])([H])C([H])([H])C14C31C([H])([H])C([H])([H])C1([H])C([H])([H])[N+]([H])(C([H])([H])C1([H])C([H])([H])C1([H])[H])C4([H])C2([H])[H]

$$$$
111:0:2
     RDKit          3D

 52 58  0  0  1  0  0  0  0  0999 V2000
    0.6391   -4.7802    3.9454 O   0  0  0  0  0  0  0  0  0  0  0  0
    1.4984   -3.9000    3.9912 C   0  0  0  0  0  0  0  0  0  0  0  0
    2.9117   -4.1167    4.4458 C   0  0  0  0  0  0  0  0  0  0  0  0
    3.6559   -3.0185    3.6884 C   0  0  0  0  0  0  0  0  0  0  0  0
    2.7125   -1.7864    3.4280 C   0  0  1  0  0  0  0  0  0  0  0  0
    1.2681   -2.4518    3.6232 C   0  0  2  0  0  0  0  0  0  0  0  0
    0.5028   -1.8912    4.7240 O   0  0  0  0  0  0  0  0  0  0  0  0
    0.3520   -0.5457    4.5499 C   0  0  0  0  0  0  0  0  0  0  0  0
   -0.9052    0.0427    4.2896 C   0  0  0  0  0  0  0  0  0  0  0  0
   -2.0442   -0.4995    4.8115 O   0  0  0  0  0  0  0  0  0  0  0  0
   -1.0062    1.0844    3.3423 C   0  0  0  0  0  0  0  0  0  0  0  0
    0.0983    1.3850    2.5280 C   0  0  0  0  0  0  0  0  0  0  0  0
    1.3508    0.8139    2.8292 C   0  0  0  0  0  0  0  0  0  0  0  0
    1.4823    0.0984    4.0327 C   0  0  0  0  0  0  0  0  0  0  0  0
    2.8121   -0.5997    4.3775 C   0  0  1  0  0  0  0  0  0  0  0  0
    3.2263   -0.8471    5.8493 C   0  0  0  0  0  0  0  0  0  0  0  0
    4.2893    0.2383    5.7525 C   0  0  0  0  0  0  0  0  0  0  0  0
    4.0880    0.2750    4.2379 C   0  0  1  0  0  0  0  0  0  0  0  0
    5.1522   -0.2602    3.2770 C   0  0  0  0  0  0  0  0  0  0  0  0
    4.5392   -0.6829    1.9811 N   0  0  1  0  0  0  0  0  0  0  0  0
    5.4022   -1.5799    1.1716 C   0  0  0  0  0  0  0  0  0  0  0  0
    5.2544   -1.3119   -0.3144 C   0  0  0  0  0  0  0  0  0  0  0  0
    4.2616   -2.1077   -1.1359 C   0  0  0  0  0  0  0  0  0  0  0  0
    5.7355   -2.3444   -1.3162 C   0  0  0  0  0  0  0  0  0  0  0  0
    3.0786   -1.0552    2.0568 C   0  0  2  0  0  0  0  0  0  0  0  0
    2.3523    0.3271    1.7845 C   0  0  0  0  0  0  0  0  0  0  0  0
    2.9629   -3.9653    5.5263 H   0  0  0  0  0  0  0  0  0  0  0  0
    3.2690   -5.1174    4.2052 H   0  0  0  0  0  0  0  0  0  0  0  0
    4.5896   -2.7887    4.1943 H   0  0  0  0  0  0  0  0  0  0  0  0
    3.9021   -3.4832    2.7366 H   0  0  0  0  0  0  0  0  0  0  0  0
    0.6813   -2.3978    2.7057 H   0  0  0  0  0  0  0  0  0  0  0  0
   -2.8148   -0.1598    4.3749 H   0  0  0  0  0  0  0  0  0  0  0  0
   -1.9710    1.4908    3.0788 H   0  0  0  0  0  0  0  0  0  0  0  0
   -0.0518    1.9243    1.5991 H   0  0  0  0  0  0  0  0  0  0  0  0
    2.4588   -0.6542    6.5932 H   0  0  0  0  0  0  0  0  0  0  0  0
    3.7095   -1.8049    6.0266 H   0  0  0  0  0  0  0  0  0  0  0  0
    3.9765    1.1609    6.2437 H   0  0  0  0  0  0  0  0  0  0  0  0
    5.2912   -0.0640    6.0642 H   0  0  0  0  0  0  0  0  0  0  0  0
    3.8110    1.2993    3.9775 H   0  0  0  0  0  0  0  0  0  0  0  0
    5.9161    0.4975    3.0891 H   0  0  0  0  0  0  0  0  0  0  0  0
    5.6951   -1.0858    3.7344 H   0  0  0  0  0  0  0  0  0  0  0  0
    6.4498   -1.4134    1.4245 H   0  0  0  0  0  0  0  0  0  0  0  0
    5.2096   -2.6315    1.3565 H   0  0  0  0  0  0  0  0  0  0  0  0
    5.4169   -0.2719   -0.6076 H   0  0  0  0  0  0  0  0  0  0  0  0
    3.6858   -2.8761   -0.6204 H   0  0  0  0  0  0  0  0  0  0  0  0
    3.7261   -1.5718   -1.9193 H   0  0  0  0  0  0  0  0  0  0  0  0
    6.1668   -2.0034   -2.2556 H   0  0  0  0  0  0  0  0  0  0  0  0
    6.1424   -3.2803   -0.9334 H   0  0  0  0  0  0  0  0  0  0  0  0
    2.8313   -1.7261    1.2347 H   0  0  0  0  0  0  0  0  0  0  0  0
    1.8141    0.2345    0.8430 H   0  0  0  0  0  0  0  0  0  0  0  0
    3.0574    1.1480    1.6245 H   0  0  0  0  0  0  0  0  0  0  0  0
    4.5219    0.1726    1.4421 H   0  0  0  0  0  0  0  0  0  0  0  0
  1  2  2  0
  2  6  1  0
  2  3  1  0
  3  4  1  0
  3 27  1  0
  3 28  1  0
  5  4  1  1
  4 29  1  0
  4 30  1  0
  5 15  1  0
  5 25  1  0
  5  6  1  0
  6  7  1  0
  6 31  1  6
  7  8  1  0
  8 14  2  0
  8  9  1  0
  9 10  1  0
  9 11  2  0
 10 32  1  0
 11 12  1  0
 11 33  1  0
 12 13  2  0
 12 34  1  0
 13 26  1  0
 13 14  1  0
 14 15  1  0
 15 18  1  0
 15 16  1  1
 16 17  1  0
 16 35  1  0
 16 36  1  0
 17 18  1  0
 17 37  1  0
 17 38  1  0
 18 19  1  0
 18 39  1  6
 19 20  1  0
 19 40  1  0
 19 41  1  0
 20 21  1  0
 20 25  1  0
 20 52  1  6
 21 22  1  0
 21 42  1  0
 21 43  1  0
 22 24  1  0
 22 23  1  0
 22 44  1  0
 23 24  1  0
 23 45  1  0
 23 46  1  0
 24 47  1  0
 24 48  1  0
 25 26  1  0
 25 49  1  6
 26 50  1  0
 26 51  1  0
M  CHG  1  20   1
M  END
>  <i_m_ct_stereo_status>  (321) 
1

>  <s_m_source_file>  (321) 
/var/tmp/pbs.5076255.sched01/tmpgyl_4d9e/126kfdajayx.sdf

>  <i_m_source_file_index>  (321) 
38

>  <i_lp_mmshare_version>  (321) 
48012

>  <i_f3d_flags>  (321) 
0

>  <s_epik_input>  (321) 
W0NIMl0xW0NIMl1DKD1PKVtDQEhdMk9jKGMzW0NAXTQ1W0NAQF0xMjYpYyhbT0hdKVtjSF1bY0hdYzNbQ0gyXVtDQEhdNk4oW0NIMl1bQ0BASF01W0NIMl1bQ0gyXTQpW0NIMl1bQ0hdN1tDSDJdW0NIMl03

>  <s_epik_cmdline>  (321) 
J2VwaWtfcHl0aG9uJywgJy1waHQnLCAnMi4wJywgJy1waCcsICc3LjAnLCAnLXRuJywgJzgnLCAnLW1hJywgJzIwMCcsICctaW1hZScsICc8aW5maWxlLm1hZT4nLCAnLW9tYWUnLCAnPG91dGZpbGUubWFlPic=

>  <r_lp_tautomer_probability>  (321) 
1

>  <r_epik_Ionization_Penalty>  (321) 
0.0126309

>  <r_epik_Ionization_Penalty_Charging>  (321) 
0.0102891

>  <r_epik_Ionization_Penalty_Neutral>  (321) 
0.00234176

>  <r_epik_State_Penalty>  (321) 
0.00786035

>  <r_epik_Charging_Adjusted_Penalty>  (321) 
0.0181494

>  <i_epik_Tot_Q>  (321) 
1

>  <i_epik_Tot_abs_Q>  (321) 
1

>  <s_lp_Force_Field>  (321) 
OPLS3e

>  <r_lp_Energy>  (321) 
132.907

>  <b_lp_Chiralities_Consistent>  (321) 
1

>  <s_lp_Variant>  (321) 
111:0-1

>  <s_i_glide_gridfile>  (321) 
pfpi4k_grid

>  <i_i_glide_lignum>  (321) 
38

>  <i_i_glide_rotatable_bonds>  (321) 
3

>  <r_i_docking_score>  (321) 
-3.22443

>  <r_i_glide_ligand_efficiency>  (321) 
-0.124017

>  <r_i_glide_ligand_efficiency_sa>  (321) 
-0.367399

>  <r_i_glide_ligand_efficiency_ln>  (321) 
-0.757247

>  <r_i_glide_gscore>  (321) 
-3.22443

>  <r_i_glide_lipo>  (321) 
-0.293776

>  <r_i_glide_hbond>  (321) 
0

>  <r_i_glide_metal>  (321) 
-0

>  <r_i_glide_rewards>  (321) 
-1.01395

>  <r_i_glide_evdw>  (321) 
-25.7297

>  <r_i_glide_ecoul>  (321) 
-6.24999

>  <r_i_glide_erotb>  (321) 
0.307281

>  <r_i_glide_esite>  (321) 
0

>  <r_i_glide_emodel>  (321) 
-39.2879

>  <r_i_glide_energy>  (321) 
-31.9797

>  <r_i_glide_einternal>  (321) 
1.32152

>  <r_i_glide_intrahb_reward>  (321) 
-0

>  <i_i_glide_confnum>  (321) 
4

>  <i_i_glide_posenum>  (321) 
13

>  <r_i_glide_eff_state_penalty>  (321) 
0

>  <ligand_id>  (321) 
111

>  <original_smiles>  (321) 
O=C1CCC23C1Oc1c(O)ccc4c1C21CCC1CN(CC1CC1)C3C4

>  <smiles>  (321) 
[H]Oc1c([H])c([H])c2c3c1OC1([H])C(=O)C([H])([H])C([H])([H])C14C31C([H])([H])C([H])([H])C1([H])C([H])([H])[N+]([H])(C([H])([H])C1([H])C([H])([H])C1([H])[H])C4([H])C2([H])[H]

$$$$
111:1:0
     RDKit          3D

 51 57  0  0  1  0  0  0  0  0999 V2000
    3.3376    0.9026    1.9380 O   0  0  0  0  0  0  0  0  0  0  0  0
    3.7862   -0.2237    1.8501 C   0  0  0  0  0  0  0  0  0  0  0  0
    4.5191   -0.9306    2.9582 C   0  0  0  0  0  0  0  0  0  0  0  0
    4.2215   -2.4058    2.6585 C   0  0  0  0  0  0  0  0  0  0  0  0
    3.8938   -2.5840    1.1362 C   0  0  1  0  0  0  0  0  0  0  0  0
    3.6299   -1.1057    0.6415 C   0  0  2  0  0  0  0  0  0  0  0  0
    4.5681   -0.6276   -0.3436 O   0  0  0  0  0  0  0  0  0  0  0  0
    4.5511   -1.4573   -1.4585 C   0  0  0  0  0  0  0  0  0  0  0  0
    4.0690   -1.0618   -2.7157 C   0  0  0  0  0  0  0  0  0  0  0  0
    4.1942    0.2148   -3.1424 O   0  0  0  0  0  0  0  0  0  0  0  0
    3.2959   -1.9482   -3.5178 C   0  0  0  0  0  0  0  0  0  0  0  0
    2.8295   -3.1274   -2.9280 C   0  0  0  0  0  0  0  0  0  0  0  0
    3.3308   -3.5016   -1.6570 C   0  0  0  0  0  0  0  0  0  0  0  0
    4.4088   -2.7954   -1.1174 C   0  0  0  0  0  0  0  0  0  0  0  0
    4.9732   -3.1734    0.2672 C   0  0  1  0  0  0  0  0  0  0  0  0
    6.4567   -2.8110    0.5358 C   0  0  0  0  0  0  0  0  0  0  0  0
    6.7365   -4.2374    0.9906 C   0  0  0  0  0  0  0  0  0  0  0  0
    5.3167   -4.6481    0.5960 C   0  0  1  0  0  0  0  0  0  0  0  0
    4.4506   -5.3635    1.6355 C   0  0  0  0  0  0  0  0  0  0  0  0
    3.0388   -4.9599    1.5756 N   0  0  0  0  0  0  0  0  0  0  0  0
    2.3017   -5.2222    2.8103 C   0  0  0  0  0  0  0  0  0  0  0  0
    2.2639   -6.7044    3.1302 C   0  0  0  0  0  0  0  0  0  0  0  0
    1.6911   -7.1724    4.4528 C   0  0  0  0  0  0  0  0  0  0  0  0
    3.1674   -7.2906    4.1928 C   0  0  0  0  0  0  0  0  0  0  0  0
    2.7495   -3.6557    0.9413 C   0  0  2  0  0  0  0  0  0  0  0  0
    2.4971   -4.1380   -0.5427 C   0  0  0  0  0  0  0  0  0  0  0  0
    5.5882   -0.7202    2.8696 H   0  0  0  0  0  0  0  0  0  0  0  0
    4.1713   -0.6142    3.9438 H   0  0  0  0  0  0  0  0  0  0  0  0
    5.0311   -3.0439    3.0162 H   0  0  0  0  0  0  0  0  0  0  0  0
    3.3304   -2.6524    3.2449 H   0  0  0  0  0  0  0  0  0  0  0  0
    2.6187   -0.9891    0.2776 H   0  0  0  0  0  0  0  0  0  0  0  0
    3.3606    0.6725   -3.1604 H   0  0  0  0  0  0  0  0  0  0  0  0
    2.8760   -1.6295   -4.4612 H   0  0  0  0  0  0  0  0  0  0  0  0
    2.0164   -3.6809   -3.3709 H   0  0  0  0  0  0  0  0  0  0  0  0
    7.0313   -2.5439   -0.3508 H   0  0  0  0  0  0  0  0  0  0  0  0
    6.6095   -2.0992    1.3503 H   0  0  0  0  0  0  0  0  0  0  0  0
    7.5264   -4.7353    0.4294 H   0  0  0  0  0  0  0  0  0  0  0  0
    6.9081   -4.3215    2.0638 H   0  0  0  0  0  0  0  0  0  0  0  0
    5.3837   -5.1949   -0.3485 H   0  0  0  0  0  0  0  0  0  0  0  0
    4.5308   -6.4399    1.5095 H   0  0  0  0  0  0  0  0  0  0  0  0
    4.8269   -5.1682    2.6366 H   0  0  0  0  0  0  0  0  0  0  0  0
    2.7350   -4.6831    3.6489 H   0  0  0  0  0  0  0  0  0  0  0  0
    1.2687   -4.8964    2.6938 H   0  0  0  0  0  0  0  0  0  0  0  0
    2.0230   -7.3430    2.2805 H   0  0  0  0  0  0  0  0  0  0  0  0
    1.3589   -6.4107    5.1549 H   0  0  0  0  0  0  0  0  0  0  0  0
    1.1186   -8.0991    4.4650 H   0  0  0  0  0  0  0  0  0  0  0  0
    3.5699   -8.2861    4.0126 H   0  0  0  0  0  0  0  0  0  0  0  0
    3.8381   -6.6015    4.7017 H   0  0  0  0  0  0  0  0  0  0  0  0
    1.8182   -3.2601    1.3323 H   0  0  0  0  0  0  0  0  0  0  0  0
    1.4695   -3.8981   -0.8082 H   0  0  0  0  0  0  0  0  0  0  0  0
    2.5667   -5.2213   -0.6688 H   0  0  0  0  0  0  0  0  0  0  0  0
  1  2  2  0
  2  6  1  0
  2  3  1  0
  3  4  1  0
  3 27  1  0
  3 28  1  0
  5  4  1  1
  4 29  1  0
  4 30  1  0
  5 15  1  0
  5 25  1  0
  5  6  1  0
  6  7  1  0
  6 31  1  6
  7  8  1  0
  8 14  2  0
  8  9  1  0
  9 10  1  0
  9 11  2  0
 10 32  1  0
 11 12  1  0
 11 33  1  0
 12 13  2  0
 12 34  1  0
 13 26  1  0
 13 14  1  0
 14 15  1  0
 15 18  1  0
 15 16  1  1
 16 17  1  0
 16 35  1  0
 16 36  1  0
 17 18  1  0
 17 37  1  0
 17 38  1  0
 18 19  1  0
 18 39  1  6
 19 20  1  0
 19 40  1  0
 19 41  1  0
 20 21  1  0
 20 25  1  0
 21 22  1  0
 21 42  1  0
 21 43  1  0
 22 24  1  0
 22 23  1  0
 22 44  1  0
 23 24  1  0
 23 45  1  0
 23 46  1  0
 24 47  1  0
 24 48  1  0
 25 26  1  0
 25 49  1  1
 26 50  1  0
 26 51  1  0
M  END
>  <i_m_ct_stereo_status>  (322) 
1

>  <s_m_source_file>  (322) 
/var/tmp/pbs.5076255.sched01/tmpgyl_4d9e/126kfdajayx.sdf

>  <i_m_source_file_index>  (322) 
39

>  <i_lp_mmshare_version>  (322) 
48012

>  <i_f3d_flags>  (322) 
0

>  <s_epik_input>  (322) 
W0NIMl0xW0NIMl1DKD1PKVtDQEhdMk9jKGMzW0NAXTQ1W0NAQF0xMjYpYyhbT0hdKVtjSF1bY0hdYzNbQ0gyXVtDQEhdNk4oW0NIMl1bQ0BASF01W0NIMl1bQ0gyXTQpW0NIMl1bQ0hdN1tDSDJdW0NIMl03

>  <s_epik_cmdline>  (322) 
J2VwaWtfcHl0aG9uJywgJy1waHQnLCAnMi4wJywgJy1waCcsICc3LjAnLCAnLXRuJywgJzgnLCAnLW1hJywgJzIwMCcsICctaW1hZScsICc8aW5maWxlLm1hZT4nLCAnLW9tYWUnLCAnPG91dGZpbGUubWFlPic=

>  <r_lp_tautomer_probability>  (322) 
1

>  <r_epik_Ionization_Penalty>  (322) 
2.40698

>  <r_epik_Ionization_Penalty_Charging>  (322) 
0

>  <r_epik_Ionization_Penalty_Neutral>  (322) 
2.40698

>  <r_epik_State_Penalty>  (322) 
2.56494

>  <r_epik_Charging_Adjusted_Penalty>  (322) 
2.56494

>  <i_epik_Tot_Q>  (322) 
0

>  <i_epik_Tot_abs_Q>  (322) 
0

>  <s_lp_Force_Field>  (322) 
OPLS3e

>  <r_lp_Energy>  (322) 
132.487

>  <b_lp_Chiralities_Consistent>  (322) 
1

>  <s_lp_Variant>  (322) 
111:0-2

>  <s_i_glide_gridfile>  (322) 
pfpi4k_grid

>  <i_i_glide_lignum>  (322) 
39

>  <i_i_glide_rotatable_bonds>  (322) 
3

>  <r_i_docking_score>  (322) 
-3.00237

>  <r_i_glide_ligand_efficiency>  (322) 
-0.115476

>  <r_i_glide_ligand_efficiency_sa>  (322) 
-0.342097

>  <r_i_glide_ligand_efficiency_ln>  (322) 
-0.705097

>  <r_i_glide_gscore>  (322) 
-3.00237

>  <r_i_glide_lipo>  (322) 
-0.682207

>  <r_i_glide_hbond>  (322) 
0

>  <r_i_glide_metal>  (322) 
-0

>  <r_i_glide_rewards>  (322) 
-1.0546

>  <r_i_glide_evdw>  (322) 
-22.5728

>  <r_i_glide_ecoul>  (322) 
-2.97183

>  <r_i_glide_erotb>  (322) 
0.30885

>  <r_i_glide_esite>  (322) 
0

>  <r_i_glide_emodel>  (322) 
-27.7893

>  <r_i_glide_energy>  (322) 
-25.5447

>  <r_i_glide_einternal>  (322) 
2.77731

>  <r_i_glide_intrahb_reward>  (322) 
-0

>  <i_i_glide_confnum>  (322) 
5

>  <i_i_glide_posenum>  (322) 
8

>  <r_i_glide_eff_state_penalty>  (322) 
0

>  <ligand_id>  (322) 
111

>  <original_smiles>  (322) 
O=C1CCC23C1Oc1c(O)ccc4c1C21CCC1CN(CC1CC1)C3C4

>  <smiles>  (322) 
[H]Oc1c([H])c([H])c2c3c1OC1([H])C(=O)C([H])([H])C([H])([H])C14C([H])(N(C([H])([H])C1([H])C([H])([H])C1([H])[H])C([H])([H])C1([H])C([H])([H])C([H])([H])C314)C2([H])[H]

$$$$
111:1:1
     RDKit          3D

 51 57  0  0  1  0  0  0  0  0999 V2000
    3.3652    0.8744    1.9467 O   0  0  0  0  0  0  0  0  0  0  0  0
    3.7547   -0.2868    1.8442 C   0  0  0  0  0  0  0  0  0  0  0  0
    4.4576   -1.0597    2.9292 C   0  0  0  0  0  0  0  0  0  0  0  0
    4.1009   -2.5071    2.5935 C   0  0  0  0  0  0  0  0  0  0  0  0
    3.7905   -2.6309    1.0688 C   0  0  1  0  0  0  0  0  0  0  0  0
    3.5923   -1.1269    0.6096 C   0  0  2  0  0  0  0  0  0  0  0  0
    4.5493   -0.6619   -0.3902 O   0  0  0  0  0  0  0  0  0  0  0  0
    4.4958   -1.4783   -1.4929 C   0  0  0  0  0  0  0  0  0  0  0  0
    4.0508   -1.0438   -2.7609 C   0  0  0  0  0  0  0  0  0  0  0  0
    4.2120    0.2450   -3.1399 O   0  0  0  0  0  0  0  0  0  0  0  0
    3.2679   -1.8826   -3.5865 C   0  0  0  0  0  0  0  0  0  0  0  0
    2.7487   -3.0578   -3.0178 C   0  0  0  0  0  0  0  0  0  0  0  0
    3.2022   -3.4581   -1.7471 C   0  0  0  0  0  0  0  0  0  0  0  0
    4.3274   -2.8325   -1.1962 C   0  0  0  0  0  0  0  0  0  0  0  0
    4.8590   -3.2414    0.1888 C   0  0  1  0  0  0  0  0  0  0  0  0
    6.3483   -2.9708    0.4921 C   0  0  0  0  0  0  0  0  0  0  0  0
    6.5522   -4.4173    0.9103 C   0  0  0  0  0  0  0  0  0  0  0  0
    5.1246   -4.7459    0.4703 C   0  0  1  0  0  0  0  0  0  0  0  0
    4.2196   -5.4586    1.4971 C   0  0  0  0  0  0  0  0  0  0  0  0
    2.8351   -4.9698    1.4646 N   0  0  0  0  0  0  0  0  0  0  0  0
    2.0584   -5.2537    2.6626 C   0  0  0  0  0  0  0  0  0  0  0  0
    1.7589   -6.7352    2.8095 C   0  0  0  0  0  0  0  0  0  0  0  0
    0.5094   -7.3270    2.1921 C   0  0  0  0  0  0  0  0  0  0  0  0
    0.6110   -7.1765    3.6898 C   0  0  0  0  0  0  0  0  0  0  0  0
    2.6053   -3.6476    0.8352 C   0  0  2  0  0  0  0  0  0  0  0  0
    2.3193   -4.0772   -0.6595 C   0  0  0  0  0  0  0  0  0  0  0  0
    5.5326   -0.8905    2.8525 H   0  0  0  0  0  0  0  0  0  0  0  0
    4.1143   -0.7525    3.9193 H   0  0  0  0  0  0  0  0  0  0  0  0
    4.8799   -3.1906    2.9407 H   0  0  0  0  0  0  0  0  0  0  0  0
    3.1934   -2.7401    3.1586 H   0  0  0  0  0  0  0  0  0  0  0  0
    2.5942   -0.9664    0.2360 H   0  0  0  0  0  0  0  0  0  0  0  0
    4.5000    0.7765   -2.4057 H   0  0  0  0  0  0  0  0  0  0  0  0
    2.8801   -1.5091   -4.5137 H   0  0  0  0  0  0  0  0  0  0  0  0
    1.9011   -3.5409   -3.4909 H   0  0  0  0  0  0  0  0  0  0  0  0
    6.9370   -2.7010   -0.3859 H   0  0  0  0  0  0  0  0  0  0  0  0
    6.5129   -2.2812    1.3140 H   0  0  0  0  0  0  0  0  0  0  0  0
    7.3288   -4.9324    0.3477 H   0  0  0  0  0  0  0  0  0  0  0  0
    6.7069   -4.5296    1.9814 H   0  0  0  0  0  0  0  0  0  0  0  0
    5.1685   -5.2852   -0.4745 H   0  0  0  0  0  0  0  0  0  0  0  0
    4.2458   -6.5369    1.3452 H   0  0  0  0  0  0  0  0  0  0  0  0
    4.5981   -5.3028    2.5055 H   0  0  0  0  0  0  0  0  0  0  0  0
    2.5891   -4.8955    3.5450 H   0  0  0  0  0  0  0  0  0  0  0  0
    1.1045   -4.7278    2.6178 H   0  0  0  0  0  0  0  0  0  0  0  0
    2.6386   -7.3770    2.8420 H   0  0  0  0  0  0  0  0  0  0  0  0
   -0.1478   -6.6514    1.6466 H   0  0  0  0  0  0  0  0  0  0  0  0
    0.5835   -8.3335    1.7839 H   0  0  0  0  0  0  0  0  0  0  0  0
    0.7391   -8.0893    4.2680 H   0  0  0  0  0  0  0  0  0  0  0  0
    0.0139   -6.4011    4.1678 H   0  0  0  0  0  0  0  0  0  0  0  0
    1.7200   -3.1892    1.2547 H   0  0  0  0  0  0  0  0  0  0  0  0
    1.3142   -3.7755   -0.9398 H   0  0  0  0  0  0  0  0  0  0  0  0
    2.3117   -5.1651   -0.7336 H   0  0  0  0  0  0  0  0  0  0  0  0
  1  2  2  0
  2  6  1  0
  2  3  1  0
  3  4  1  0
  3 27  1  0
  3 28  1  0
  5  4  1  1
  4 29  1  0
  4 30  1  0
  5 15  1  0
  5 25  1  0
  5  6  1  0
  6  7  1  0
  6 31  1  6
  7  8  1  0
  8 14  2  0
  8  9  1  0
  9 10  1  0
  9 11  2  0
 10 32  1  0
 11 12  1  0
 11 33  1  0
 12 13  2  0
 12 34  1  0
 13 26  1  0
 13 14  1  0
 14 15  1  0
 15 18  1  0
 15 16  1  1
 16 17  1  0
 16 35  1  0
 16 36  1  0
 17 18  1  0
 17 37  1  0
 17 38  1  0
 18 19  1  0
 18 39  1  6
 19 20  1  0
 19 40  1  0
 19 41  1  0
 20 21  1  0
 20 25  1  0
 21 22  1  0
 21 42  1  0
 21 43  1  0
 22 24  1  0
 22 23  1  0
 22 44  1  0
 23 24  1  0
 23 45  1  0
 23 46  1  0
 24 47  1  0
 24 48  1  0
 25 26  1  0
 25 49  1  1
 26 50  1  0
 26 51  1  0
M  END
>  <i_m_ct_stereo_status>  (323) 
1

>  <s_m_source_file>  (323) 
/var/tmp/pbs.5076255.sched01/tmpgyl_4d9e/126kfdajayx.sdf

>  <i_m_source_file_index>  (323) 
39

>  <i_lp_mmshare_version>  (323) 
48012

>  <i_f3d_flags>  (323) 
0

>  <s_epik_input>  (323) 
W0NIMl0xW0NIMl1DKD1PKVtDQEhdMk9jKGMzW0NAXTQ1W0NAQF0xMjYpYyhbT0hdKVtjSF1bY0hdYzNbQ0gyXVtDQEhdNk4oW0NIMl1bQ0BASF01W0NIMl1bQ0gyXTQpW0NIMl1bQ0hdN1tDSDJdW0NIMl03

>  <s_epik_cmdline>  (323) 
J2VwaWtfcHl0aG9uJywgJy1waHQnLCAnMi4wJywgJy1waCcsICc3LjAnLCAnLXRuJywgJzgnLCAnLW1hJywgJzIwMCcsICctaW1hZScsICc8aW5maWxlLm1hZT4nLCAnLW9tYWUnLCAnPG91dGZpbGUubWFlPic=

>  <r_lp_tautomer_probability>  (323) 
1

>  <r_epik_Ionization_Penalty>  (323) 
2.40698

>  <r_epik_Ionization_Penalty_Charging>  (323) 
0

>  <r_epik_Ionization_Penalty_Neutral>  (323) 
2.40698

>  <r_epik_State_Penalty>  (323) 
2.56494

>  <r_epik_Charging_Adjusted_Penalty>  (323) 
2.56494

>  <i_epik_Tot_Q>  (323) 
0

>  <i_epik_Tot_abs_Q>  (323) 
0

>  <s_lp_Force_Field>  (323) 
OPLS3e

>  <r_lp_Energy>  (323) 
132.487

>  <b_lp_Chiralities_Consistent>  (323) 
1

>  <s_lp_Variant>  (323) 
111:0-2

>  <s_i_glide_gridfile>  (323) 
pfpi4k_grid

>  <i_i_glide_lignum>  (323) 
39

>  <i_i_glide_rotatable_bonds>  (323) 
3

>  <r_i_docking_score>  (323) 
-2.97666

>  <r_i_glide_ligand_efficiency>  (323) 
-0.114487

>  <r_i_glide_ligand_efficiency_sa>  (323) 
-0.339167

>  <r_i_glide_ligand_efficiency_ln>  (323) 
-0.699059

>  <r_i_glide_gscore>  (323) 
-2.97666

>  <r_i_glide_lipo>  (323) 
-0.738107

>  <r_i_glide_hbond>  (323) 
0

>  <r_i_glide_metal>  (323) 
-0

>  <r_i_glide_rewards>  (323) 
-1.04973

>  <r_i_glide_evdw>  (323) 
-24.3337

>  <r_i_glide_ecoul>  (323) 
-1.87328

>  <r_i_glide_erotb>  (323) 
0.30885

>  <r_i_glide_esite>  (323) 
0

>  <r_i_glide_emodel>  (323) 
-29.8181

>  <r_i_glide_energy>  (323) 
-26.207

>  <r_i_glide_einternal>  (323) 
0.731936

>  <r_i_glide_intrahb_reward>  (323) 
-0

>  <i_i_glide_confnum>  (323) 
5

>  <i_i_glide_posenum>  (323) 
12

>  <r_i_glide_eff_state_penalty>  (323) 
0

>  <ligand_id>  (323) 
111

>  <original_smiles>  (323) 
O=C1CCC23C1Oc1c(O)ccc4c1C21CCC1CN(CC1CC1)C3C4

>  <smiles>  (323) 
[H]Oc1c([H])c([H])c2c3c1OC1([H])C(=O)C([H])([H])C([H])([H])C14C([H])(N(C([H])([H])C1([H])C([H])([H])C1([H])[H])C([H])([H])C1([H])C([H])([H])C([H])([H])C314)C2([H])[H]

$$$$
111:1:2
     RDKit          3D

 51 57  0  0  1  0  0  0  0  0999 V2000
    4.8243   -2.2519    5.1341 O   0  0  0  0  0  0  0  0  0  0  0  0
    4.8958   -3.2504    4.4041 C   0  0  0  0  0  0  0  0  0  0  0  0
    5.3285   -4.5999    4.8868 C   0  0  0  0  0  0  0  0  0  0  0  0
    4.6997   -5.5447    3.8529 C   0  0  0  0  0  0  0  0  0  0  0  0
    4.4439   -4.7778    2.5014 C   0  0  1  0  0  0  0  0  0  0  0  0
    4.5675   -3.2469    2.9340 C   0  0  2  0  0  0  0  0  0  0  0  0
    5.6438   -2.5421    2.2687 O   0  0  0  0  0  0  0  0  0  0  0  0
    5.5160   -2.6252    0.9283 C   0  0  0  0  0  0  0  0  0  0  0  0
    5.2441   -1.5013    0.0971 C   0  0  0  0  0  0  0  0  0  0  0  0
    5.7233   -0.2811    0.4560 O   0  0  0  0  0  0  0  0  0  0  0  0
    4.3634   -1.6103   -0.9996 C   0  0  0  0  0  0  0  0  0  0  0  0
    3.6035   -2.7937   -1.1407 C   0  0  0  0  0  0  0  0  0  0  0  0
    3.8957   -3.9191   -0.3443 C   0  0  0  0  0  0  0  0  0  0  0  0
    5.0568   -3.8672    0.4543 C   0  0  0  0  0  0  0  0  0  0  0  0
    5.4174   -5.0413    1.3892 C   0  0  1  0  0  0  0  0  0  0  0  0
    6.9259   -5.2623    1.6971 C   0  0  0  0  0  0  0  0  0  0  0  0
    6.8198   -6.7212    1.2771 C   0  0  0  0  0  0  0  0  0  0  0  0
    5.3727   -6.4864    0.8291 C   0  0  1  0  0  0  0  0  0  0  0  0
    4.2974   -7.4182    1.3665 C   0  0  0  0  0  0  0  0  0  0  0  0
    3.0282   -6.7276    1.6493 N   0  0  0  0  0  0  0  0  0  0  0  0
    2.1505   -7.4383    2.5736 C   0  0  0  0  0  0  0  0  0  0  0  0
    1.8366   -8.8446    2.1088 C   0  0  0  0  0  0  0  0  0  0  0  0
    0.8321   -9.6833    2.8743 C   0  0  0  0  0  0  0  0  0  0  0  0
    2.2938  -10.0388    2.9192 C   0  0  0  0  0  0  0  0  0  0  0  0
    3.0911   -5.2597    1.8332 C   0  0  2  0  0  0  0  0  0  0  0  0
    2.8411   -4.7885    0.3467 C   0  0  0  0  0  0  0  0  0  0  0  0
    6.4210   -4.6560    4.8500 H   0  0  0  0  0  0  0  0  0  0  0  0
    4.9997   -4.8079    5.9025 H   0  0  0  0  0  0  0  0  0  0  0  0
    5.3026   -6.4409    3.7405 H   0  0  0  0  0  0  0  0  0  0  0  0
    3.7437   -5.8475    4.2767 H   0  0  0  0  0  0  0  0  0  0  0  0
    3.6283   -2.7268    2.7736 H   0  0  0  0  0  0  0  0  0  0  0  0
    5.4156    0.4352   -0.0788 H   0  0  0  0  0  0  0  0  0  0  0  0
    4.0941   -0.7390   -1.5689 H   0  0  0  0  0  0  0  0  0  0  0  0
    2.6990   -2.7616   -1.7295 H   0  0  0  0  0  0  0  0  0  0  0  0
    7.6136   -4.7059    1.0702 H   0  0  0  0  0  0  0  0  0  0  0  0
    7.1849   -5.1744    2.7542 H   0  0  0  0  0  0  0  0  0  0  0  0
    7.5171   -7.0058    0.4918 H   0  0  0  0  0  0  0  0  0  0  0  0
    6.8870   -7.4183    2.1184 H   0  0  0  0  0  0  0  0  0  0  0  0
    5.3568   -6.4212   -0.2640 H   0  0  0  0  0  0  0  0  0  0  0  0
    4.1190   -8.2391    0.6684 H   0  0  0  0  0  0  0  0  0  0  0  0
    4.6378   -7.9014    2.2816 H   0  0  0  0  0  0  0  0  0  0  0  0
    2.5876   -7.4860    3.5690 H   0  0  0  0  0  0  0  0  0  0  0  0
    1.2064   -6.8987    2.6526 H   0  0  0  0  0  0  0  0  0  0  0  0
    1.8134   -8.9772    1.0236 H   0  0  0  0  0  0  0  0  0  0  0  0
    0.3888   -9.2416    3.7670 H   0  0  0  0  0  0  0  0  0  0  0  0
    0.1785  -10.3416    2.3080 H   0  0  0  0  0  0  0  0  0  0  0  0
    2.6145  -10.9245    2.3780 H   0  0  0  0  0  0  0  0  0  0  0  0
    2.8416   -9.8313    3.8384 H   0  0  0  0  0  0  0  0  0  0  0  0
    2.2403   -4.9397    2.4352 H   0  0  0  0  0  0  0  0  0  0  0  0
    1.9206   -4.1948    0.3408 H   0  0  0  0  0  0  0  0  0  0  0  0
    2.6255   -5.6188   -0.3291 H   0  0  0  0  0  0  0  0  0  0  0  0
  1  2  2  0
  2  6  1  0
  2  3  1  0
  3  4  1  0
  3 27  1  0
  3 28  1  0
  5  4  1  1
  4 29  1  0
  4 30  1  0
  5 15  1  0
  5 25  1  0
  5  6  1  0
  6  7  1  0
  6 31  1  1
  7  8  1  0
  8 14  2  0
  8  9  1  0
  9 10  1  0
  9 11  2  0
 10 32  1  0
 11 12  1  0
 11 33  1  0
 12 13  2  0
 12 34  1  0
 13 26  1  0
 13 14  1  0
 14 15  1  0
 15 18  1  0
 15 16  1  1
 16 17  1  0
 16 35  1  0
 16 36  1  0
 17 18  1  0
 17 37  1  0
 17 38  1  0
 18 19  1  0
 18 39  1  6
 19 20  1  0
 19 40  1  0
 19 41  1  0
 20 21  1  0
 20 25  1  0
 21 22  1  0
 21 42  1  0
 21 43  1  0
 22 24  1  0
 22 23  1  0
 22 44  1  0
 23 24  1  0
 23 45  1  0
 23 46  1  0
 24 47  1  0
 24 48  1  0
 25 26  1  0
 25 49  1  1
 26 50  1  0
 26 51  1  0
M  END
>  <i_m_ct_stereo_status>  (324) 
1

>  <s_m_source_file>  (324) 
/var/tmp/pbs.5076255.sched01/tmpgyl_4d9e/126kfdajayx.sdf

>  <i_m_source_file_index>  (324) 
39

>  <i_lp_mmshare_version>  (324) 
48012

>  <i_f3d_flags>  (324) 
0

>  <s_epik_input>  (324) 
W0NIMl0xW0NIMl1DKD1PKVtDQEhdMk9jKGMzW0NAXTQ1W0NAQF0xMjYpYyhbT0hdKVtjSF1bY0hdYzNbQ0gyXVtDQEhdNk4oW0NIMl1bQ0BASF01W0NIMl1bQ0gyXTQpW0NIMl1bQ0hdN1tDSDJdW0NIMl03

>  <s_epik_cmdline>  (324) 
J2VwaWtfcHl0aG9uJywgJy1waHQnLCAnMi4wJywgJy1waCcsICc3LjAnLCAnLXRuJywgJzgnLCAnLW1hJywgJzIwMCcsICctaW1hZScsICc8aW5maWxlLm1hZT4nLCAnLW9tYWUnLCAnPG91dGZpbGUubWFlPic=

>  <r_lp_tautomer_probability>  (324) 
1

>  <r_epik_Ionization_Penalty>  (324) 
2.40698

>  <r_epik_Ionization_Penalty_Charging>  (324) 
0

>  <r_epik_Ionization_Penalty_Neutral>  (324) 
2.40698

>  <r_epik_State_Penalty>  (324) 
2.56494

>  <r_epik_Charging_Adjusted_Penalty>  (324) 
2.56494

>  <i_epik_Tot_Q>  (324) 
0

>  <i_epik_Tot_abs_Q>  (324) 
0

>  <s_lp_Force_Field>  (324) 
OPLS3e

>  <r_lp_Energy>  (324) 
132.487

>  <b_lp_Chiralities_Consistent>  (324) 
1

>  <s_lp_Variant>  (324) 
111:0-2

>  <s_i_glide_gridfile>  (324) 
pfpi4k_grid

>  <i_i_glide_lignum>  (324) 
39

>  <i_i_glide_rotatable_bonds>  (324) 
3

>  <r_i_docking_score>  (324) 
-2.93811

>  <r_i_glide_ligand_efficiency>  (324) 
-0.113004

>  <r_i_glide_ligand_efficiency_sa>  (324) 
-0.334774

>  <r_i_glide_ligand_efficiency_ln>  (324) 
-0.690005

>  <r_i_glide_gscore>  (324) 
-2.93811

>  <r_i_glide_lipo>  (324) 
-0.599587

>  <r_i_glide_hbond>  (324) 
0

>  <r_i_glide_metal>  (324) 
-0

>  <r_i_glide_rewards>  (324) 
-1.05456

>  <r_i_glide_evdw>  (324) 
-21.2017

>  <r_i_glide_ecoul>  (324) 
-3.55148

>  <r_i_glide_erotb>  (324) 
0.30885

>  <r_i_glide_esite>  (324) 
0

>  <r_i_glide_emodel>  (324) 
-29.0558

>  <r_i_glide_energy>  (324) 
-24.7532

>  <r_i_glide_einternal>  (324) 
0.14743

>  <r_i_glide_intrahb_reward>  (324) 
-0

>  <i_i_glide_confnum>  (324) 
5

>  <i_i_glide_posenum>  (324) 
34

>  <r_i_glide_eff_state_penalty>  (324) 
0

>  <ligand_id>  (324) 
111

>  <original_smiles>  (324) 
O=C1CCC23C1Oc1c(O)ccc4c1C21CCC1CN(CC1CC1)C3C4

>  <smiles>  (324) 
[H]Oc1c([H])c([H])c2c3c1OC1([H])C(=O)C([H])([H])C([H])([H])C14C([H])(N(C([H])([H])C1([H])C([H])([H])C1([H])[H])C([H])([H])C1([H])C([H])([H])C([H])([H])C314)C2([H])[H]

$$$$
112:0:0
     RDKit          3D

 65 68  0  0  1  0  0  0  0  0999 V2000
   -2.5403    3.3304    2.8374 C   0  0  0  0  0  0  0  0  0  0  0  0
   -1.4490    2.6365    3.6349 C   0  0  0  0  0  0  0  0  0  0  0  0
   -1.1900    1.3263    3.3972 C   0  0  0  0  0  0  0  0  0  0  0  0
   -0.0858    0.5620    4.0901 C   0  0  2  0  0  0  0  0  0  0  0  0
    0.8206   -0.4149    3.3708 C   0  0  1  0  0  0  0  0  0  0  0  0
    1.8906    0.3537    2.5422 C   0  0  0  0  0  0  0  0  0  0  0  0
    2.8801    1.3125    3.2777 C   0  0  0  0  0  0  0  0  0  0  0  0
    2.4426    2.6794    3.9319 C   0  0  1  0  0  0  0  0  0  0  0  0
    1.8727    3.5992    2.8402 C   0  0  0  0  0  0  0  0  0  0  0  0
    1.7947    2.7460    5.4190 C   0  0  2  0  0  0  0  0  0  0  0  0
    2.2329    4.0551    5.7656 O   0  0  0  0  0  0  0  0  0  0  0  0
    2.5944    1.7669    6.3528 C   0  0  1  0  0  0  0  0  0  0  0  0
    2.6810    2.2729    7.6781 O   0  0  0  0  0  0  0  0  0  0  0  0
    2.4024    0.1895    6.3216 C   0  0  1  0  0  0  0  0  0  0  0  0
    3.0266   -0.3337    7.4914 O   0  0  0  0  0  0  0  0  0  0  0  0
    1.0802   -0.6198    5.9098 C   0  0  1  0  0  0  0  0  0  0  0  0
    0.7175   -1.6461    7.0656 C   0  0  0  0  0  0  0  0  0  0  0  0
   -0.5295   -2.3079    6.9493 O   0  0  0  0  0  0  0  0  0  0  0  0
   -0.1912    0.2617    5.5978 C   0  0  1  0  0  0  0  0  0  0  0  0
   -0.4820    1.5352    6.4655 C   0  0  0  0  0  0  0  0  0  0  0  0
   -2.0347    1.6795    6.6031 C   0  0  0  0  0  0  0  0  0  0  0  0
   -0.1435    1.3724    7.9803 C   0  0  0  0  0  0  0  0  0  0  0  0
    0.2004    2.8204    5.7888 C   0  0  2  0  0  0  0  0  0  0  0  0
   -0.7935    3.4943    4.7500 C   0  0  1  0  0  0  0  0  0  0  0  0
   -0.3803    4.7574    4.2690 O   0  0  0  0  0  0  0  0  0  0  0  0
    1.2778   -1.3736    4.5086 C   0  0  1  0  0  0  0  0  0  0  0  0
    0.3113   -2.4099    4.4343 O   0  0  0  0  0  0  0  0  0  0  0  0
    2.5805   -2.2194    4.2464 C   0  0  0  0  0  0  0  0  0  0  0  0
    3.7427   -1.4819    3.8948 O   0  0  0  0  0  0  0  0  0  0  0  0
   -3.2987    3.7373    3.5064 H   0  0  0  0  0  0  0  0  0  0  0  0
   -3.0344    2.6431    2.1549 H   0  0  0  0  0  0  0  0  0  0  0  0
   -2.1088    4.1437    2.2517 H   0  0  0  0  0  0  0  0  0  0  0  0
   -1.7260    0.7863    2.6316 H   0  0  0  0  0  0  0  0  0  0  0  0
    0.5420    1.3829    4.0145 H   0  0  0  0  0  0  0  0  0  0  0  0
    0.2363   -0.9634    2.6325 H   0  0  0  0  0  0  0  0  0  0  0  0
    2.4648   -0.3708    1.9719 H   0  0  0  0  0  0  0  0  0  0  0  0
    1.3712    0.9294    1.7713 H   0  0  0  0  0  0  0  0  0  0  0  0
    3.5723    0.7752    3.9171 H   0  0  0  0  0  0  0  0  0  0  0  0
    3.5319    1.6117    2.4613 H   0  0  0  0  0  0  0  0  0  0  0  0
    3.4363    3.1202    4.0735 H   0  0  0  0  0  0  0  0  0  0  0  0
    0.8870    3.2743    2.5268 H   0  0  0  0  0  0  0  0  0  0  0  0
    2.4936    3.5676    1.9498 H   0  0  0  0  0  0  0  0  0  0  0  0
    1.8514    4.6506    3.1288 H   0  0  0  0  0  0  0  0  0  0  0  0
    1.8278    4.6653    5.1571 H   0  0  0  0  0  0  0  0  0  0  0  0
    3.6329    1.9084    6.0538 H   0  0  0  0  0  0  0  0  0  0  0  0
    3.3961    1.8148    8.1069 H   0  0  0  0  0  0  0  0  0  0  0  0
    3.1483   -0.1446    5.6276 H   0  0  0  0  0  0  0  0  0  0  0  0
    2.5076   -0.0814    8.2464 H   0  0  0  0  0  0  0  0  0  0  0  0
    1.4876   -2.4124    7.1250 H   0  0  0  0  0  0  0  0  0  0  0  0
    0.6872   -1.1779    8.0467 H   0  0  0  0  0  0  0  0  0  0  0  0
   -0.5401   -2.7281    6.0937 H   0  0  0  0  0  0  0  0  0  0  0  0
   -1.0740   -0.3799    5.6644 H   0  0  0  0  0  0  0  0  0  0  0  0
   -2.3074    2.5819    7.1526 H   0  0  0  0  0  0  0  0  0  0  0  0
   -2.4730    0.8450    7.1485 H   0  0  0  0  0  0  0  0  0  0  0  0
   -2.5788    1.6857    5.6656 H   0  0  0  0  0  0  0  0  0  0  0  0
   -0.2249    2.3214    8.5119 H   0  0  0  0  0  0  0  0  0  0  0  0
    0.8271    0.9725    8.2070 H   0  0  0  0  0  0  0  0  0  0  0  0
   -0.8093    0.6746    8.4878 H   0  0  0  0  0  0  0  0  0  0  0  0
    0.1675    3.5322    6.6133 H   0  0  0  0  0  0  0  0  0  0  0  0
   -1.6497    3.8177    5.3428 H   0  0  0  0  0  0  0  0  0  0  0  0
    0.1653    4.6143    3.4978 H   0  0  0  0  0  0  0  0  0  0  0  0
    0.4118   -2.8276    3.5847 H   0  0  0  0  0  0  0  0  0  0  0  0
    2.8278   -2.8371    5.1130 H   0  0  0  0  0  0  0  0  0  0  0  0
    2.4190   -2.9210    3.4281 H   0  0  0  0  0  0  0  0  0  0  0  0
    3.5341   -0.8962    3.1774 H   0  0  0  0  0  0  0  0  0  0  0  0
  1  2  1  0
  1 30  1  0
  1 31  1  0
  1 32  1  0
  2 24  1  0
  2  3  2  0
  3  4  1  0
  3 33  1  0
  4 19  1  0
  4  5  1  0
  4 34  1  1
  5 26  1  0
  5  6  1  0
  5 35  1  6
  6  7  1  0
  6 36  1  0
  6 37  1  0
  7  8  1  0
  7 38  1  0
  7 39  1  0
  8  9  1  0
  8 10  1  0
  8 40  1  1
  9 41  1  0
  9 42  1  0
  9 43  1  0
 10 23  1  0
 10 11  1  1
 10 12  1  0
 11 44  1  0
 12 13  1  0
 12 14  1  0
 12 45  1  6
 13 46  1  0
 14 15  1  0
 14 16  1  0
 14 47  1  6
 15 48  1  0
 16 17  1  1
 16 19  1  0
 16 26  1  0
 17 18  1  0
 17 49  1  0
 17 50  1  0
 18 51  1  0
 19 20  1  0
 19 52  1  6
 20 21  1  0
 20 22  1  0
 20 23  1  0
 21 53  1  0
 21 54  1  0
 21 55  1  0
 22 56  1  0
 22 57  1  0
 22 58  1  0
 23 24  1  0
 23 59  1  1
 24 25  1  0
 24 60  1  1
 25 61  1  0
 26 27  1  1
 26 28  1  0
 27 62  1  0
 28 29  1  0
 28 63  1  0
 28 64  1  0
 29 65  1  0
M  END
>  <i_m_ct_stereo_status>  (325) 
1

>  <s_m_source_file>  (325) 
/var/tmp/pbs.5076255.sched01/tmpgyl_4d9e/126kfdajayx.sdf

>  <i_m_source_file_index>  (325) 
40

>  <i_lp_mmshare_version>  (325) 
48012

>  <i_f3d_flags>  (325) 
0

>  <s_epik_input>  (325) 
W09IXVtDQEBdMTJbQ0BASF0zQyhbQ0gzXSkoW0NIM10pW0NASF00W0NASF0oW0NIXT1DKFtDSDNdKVtDQEBIXTNbT0hdKVtDQEBIXShbQ0gyXVtDSDJdW0NASF0xW0NIM10pW0NAQF0oW09IXSkoW0NIMl1bT0hdKVtDQEBdNChbQ0gyXVtPSF0pW0NASF0oW09IXSlbQ0BASF0yW09IXQ==

>  <s_epik_cmdline>  (325) 
J2VwaWtfcHl0aG9uJywgJy1waHQnLCAnMi4wJywgJy1waCcsICc3LjAnLCAnLXRuJywgJzgnLCAnLW1hJywgJzIwMCcsICctaW1hZScsICc8aW5maWxlLm1hZT4nLCAnLW9tYWUnLCAnPG91dGZpbGUubWFlPic=

>  <r_lp_tautomer_probability>  (325) 
1

>  <r_epik_Ionization_Penalty>  (325) 
1.52615e-06

>  <r_epik_Ionization_Penalty_Charging>  (325) 
0

>  <r_epik_Ionization_Penalty_Neutral>  (325) 
1.52615e-06

>  <r_epik_State_Penalty>  (325) 
-0

>  <r_epik_Charging_Adjusted_Penalty>  (325) 
0

>  <i_epik_Tot_Q>  (325) 
0

>  <i_epik_Tot_abs_Q>  (325) 
0

>  <s_lp_Force_Field>  (325) 
OPLS3e

>  <r_lp_Energy>  (325) 
141.125

>  <b_lp_Chiralities_Consistent>  (325) 
1

>  <s_lp_Variant>  (325) 
112:0-1

>  <s_i_glide_gridfile>  (325) 
pfpi4k_grid

>  <i_i_glide_lignum>  (325) 
40

>  <i_i_glide_rotatable_bonds>  (325) 
9

>  <r_i_docking_score>  (325) 
-2.86747

>  <r_i_glide_ligand_efficiency>  (325) 
-0.0988782

>  <r_i_glide_ligand_efficiency_sa>  (325) 
-0.303785

>  <r_i_glide_ligand_efficiency_ln>  (325) 
-0.656578

>  <r_i_glide_gscore>  (325) 
-2.86747

>  <r_i_glide_lipo>  (325) 
0

>  <r_i_glide_hbond>  (325) 
0

>  <r_i_glide_metal>  (325) 
-0

>  <r_i_glide_rewards>  (325) 
-1.09647

>  <r_i_glide_evdw>  (325) 
-17.921

>  <r_i_glide_ecoul>  (325) 
-7.37804

>  <r_i_glide_erotb>  (325) 
0.231764

>  <r_i_glide_esite>  (325) 
0

>  <r_i_glide_emodel>  (325) 
-31.7423

>  <r_i_glide_energy>  (325) 
-25.2991

>  <r_i_glide_einternal>  (325) 
4.7966

>  <r_i_glide_intrahb_reward>  (325) 
-0.5

>  <i_i_glide_confnum>  (325) 
5

>  <i_i_glide_posenum>  (325) 
35

>  <r_i_glide_eff_state_penalty>  (325) 
0

>  <ligand_id>  (325) 
112

>  <original_smiles>  (325) 
CC1=CC2C3CCC(C)C4(O)C(O)C(O)C(CO)(C2C(C)(C)C4C1O)C3(O)CO

>  <smiles>  (325) 
[H]OC([H])([H])C1(O[H])C2([H])C([H])([H])C([H])([H])C([H])(C([H])([H])[H])C3(O[H])C([H])(O[H])C([H])(O[H])C1(C([H])([H])O[H])C1([H])C2([H])C([H])=C(C([H])([H])[H])C([H])(O[H])C3([H])C1(C([H])([H])[H])C([H])([H])[H]

$$$$
112:0:1
     RDKit          3D

 65 68  0  0  1  0  0  0  0  0999 V2000
   -2.5232    4.0034    2.6900 C   0  0  0  0  0  0  0  0  0  0  0  0
   -1.5357    3.2336    3.5433 C   0  0  0  0  0  0  0  0  0  0  0  0
   -1.2463    1.9514    3.2430 C   0  0  0  0  0  0  0  0  0  0  0  0
   -0.2324    1.1394    4.0086 C   0  0  2  0  0  0  0  0  0  0  0  0
    0.7302    0.1948    3.3194 C   0  0  1  0  0  0  0  0  0  0  0  0
    1.9145    0.9953    2.6984 C   0  0  0  0  0  0  0  0  0  0  0  0
    2.8081    1.9047    3.6064 C   0  0  0  0  0  0  0  0  0  0  0  0
    2.3082    3.2299    4.2933 C   0  0  1  0  0  0  0  0  0  0  0  0
    1.8819    4.2330    3.2054 C   0  0  0  0  0  0  0  0  0  0  0  0
    1.4961    3.1935    5.6956 C   0  0  2  0  0  0  0  0  0  0  0  0
    1.8815    4.4746    6.1900 O   0  0  0  0  0  0  0  0  0  0  0  0
    2.1901    2.1350    6.6323 C   0  0  1  0  0  0  0  0  0  0  0  0
    2.1310    2.5347    7.9990 O   0  0  0  0  0  0  0  0  0  0  0  0
    1.9968    0.5700    6.4429 C   0  0  1  0  0  0  0  0  0  0  0  0
    2.4870   -0.0559    7.6198 O   0  0  0  0  0  0  0  0  0  0  0  0
    0.7136   -0.1927    5.8417 C   0  0  1  0  0  0  0  0  0  0  0  0
    0.2381   -1.2944    6.8700 C   0  0  0  0  0  0  0  0  0  0  0  0
   -0.9318   -1.9989    6.4872 O   0  0  0  0  0  0  0  0  0  0  0  0
   -0.5053    0.7332    5.4626 C   0  0  1  0  0  0  0  0  0  0  0  0
   -0.8731    1.9384    6.3867 C   0  0  0  0  0  0  0  0  0  0  0  0
   -2.4271    2.0874    6.3715 C   0  0  0  0  0  0  0  0  0  0  0  0
   -0.7084    1.6683    7.9113 C   0  0  0  0  0  0  0  0  0  0  0  0
   -0.1276    3.2554    5.8816 C   0  0  2  0  0  0  0  0  0  0  0  0
   -0.9961    4.0066    4.7854 C   0  0  1  0  0  0  0  0  0  0  0  0
   -0.5258    5.3001    4.4595 O   0  0  0  0  0  0  0  0  0  0  0  0
    1.0578   -0.8551    4.4206 C   0  0  1  0  0  0  0  0  0  0  0  0
    0.1523   -1.9020    4.1023 O   0  0  0  0  0  0  0  0  0  0  0  0
    2.4308   -1.5782    4.2118 C   0  0  0  0  0  0  0  0  0  0  0  0
    2.7407   -2.4781    5.2542 O   0  0  0  0  0  0  0  0  0  0  0  0
   -3.3444    4.3869    3.2773 H   0  0  0  0  0  0  0  0  0  0  0  0
   -2.9662    3.3497    1.9409 H   0  0  0  0  0  0  0  0  0  0  0  0
   -2.0275    4.8423    2.1984 H   0  0  0  0  0  0  0  0  0  0  0  0
   -1.6889    1.4594    2.3878 H   0  0  0  0  0  0  0  0  0  0  0  0
    0.4006    1.9601    4.0401 H   0  0  0  0  0  0  0  0  0  0  0  0
    0.2242   -0.2769    2.4746 H   0  0  0  0  0  0  0  0  0  0  0  0
    2.5751    0.2963    2.1809 H   0  0  0  0  0  0  0  0  0  0  0  0
    1.5089    1.6250    1.9017 H   0  0  0  0  0  0  0  0  0  0  0  0
    3.4599    1.3351    4.2578 H   0  0  0  0  0  0  0  0  0  0  0  0
    3.5113    2.2687    2.8696 H   0  0  0  0  0  0  0  0  0  0  0  0
    3.2819    3.6448    4.5781 H   0  0  0  0  0  0  0  0  0  0  0  0
    0.9368    3.9361    2.7694 H   0  0  0  0  0  0  0  0  0  0  0  0
    2.5988    4.2573    2.3816 H   0  0  0  0  0  0  0  0  0  0  0  0
    1.8247    5.2594    3.5640 H   0  0  0  0  0  0  0  0  0  0  0  0
    1.5209    5.1313    5.6122 H   0  0  0  0  0  0  0  0  0  0  0  0
    3.2536    2.2878    6.4548 H   0  0  0  0  0  0  0  0  0  0  0  0
    1.2214    2.6330    8.2356 H   0  0  0  0  0  0  0  0  0  0  0  0
    2.8213    0.2812    5.8203 H   0  0  0  0  0  0  0  0  0  0  0  0
    2.0294    0.3215    8.3601 H   0  0  0  0  0  0  0  0  0  0  0  0
    1.0229   -2.0321    7.0237 H   0  0  0  0  0  0  0  0  0  0  0  0
    0.0494   -0.8855    7.8612 H   0  0  0  0  0  0  0  0  0  0  0  0
   -0.7793   -2.2972    5.5871 H   0  0  0  0  0  0  0  0  0  0  0  0
   -1.3879    0.0942    5.3780 H   0  0  0  0  0  0  0  0  0  0  0  0
   -2.7607    2.9460    6.9565 H   0  0  0  0  0  0  0  0  0  0  0  0
   -2.9255    1.2113    6.7898 H   0  0  0  0  0  0  0  0  0  0  0  0
   -2.8488    2.1736    5.3792 H   0  0  0  0  0  0  0  0  0  0  0  0
   -0.8553    2.5799    8.4962 H   0  0  0  0  0  0  0  0  0  0  0  0
    0.2281    1.2295    8.2156 H   0  0  0  0  0  0  0  0  0  0  0  0
   -1.4339    0.9467    8.2863 H   0  0  0  0  0  0  0  0  0  0  0  0
   -0.2600    3.9164    6.7395 H   0  0  0  0  0  0  0  0  0  0  0  0
   -1.9136    4.2852    5.2986 H   0  0  0  0  0  0  0  0  0  0  0  0
    0.1566    5.2040    3.8059 H   0  0  0  0  0  0  0  0  0  0  0  0
    0.3296   -2.1643    3.2069 H   0  0  0  0  0  0  0  0  0  0  0  0
    2.4306   -2.1371    3.2785 H   0  0  0  0  0  0  0  0  0  0  0  0
    3.2815   -0.9053    4.1261 H   0  0  0  0  0  0  0  0  0  0  0  0
    2.0928   -3.1681    5.2708 H   0  0  0  0  0  0  0  0  0  0  0  0
  1  2  1  0
  1 30  1  0
  1 31  1  0
  1 32  1  0
  2 24  1  0
  2  3  2  0
  3  4  1  0
  3 33  1  0
  4 19  1  0
  4  5  1  0
  4 34  1  1
  5 26  1  0
  5  6  1  0
  5 35  1  6
  6  7  1  0
  6 36  1  0
  6 37  1  0
  7  8  1  0
  7 38  1  0
  7 39  1  0
  8  9  1  0
  8 10  1  0
  8 40  1  1
  9 41  1  0
  9 42  1  0
  9 43  1  0
 10 23  1  0
 10 11  1  1
 10 12  1  0
 11 44  1  0
 12 13  1  0
 12 14  1  0
 12 45  1  6
 13 46  1  0
 14 15  1  0
 14 16  1  0
 14 47  1  6
 15 48  1  0
 16 17  1  1
 16 19  1  0
 16 26  1  0
 17 18  1  0
 17 49  1  0
 17 50  1  0
 18 51  1  0
 19 20  1  0
 19 52  1  6
 20 21  1  0
 20 22  1  0
 20 23  1  0
 21 53  1  0
 21 54  1  0
 21 55  1  0
 22 56  1  0
 22 57  1  0
 22 58  1  0
 23 24  1  0
 23 59  1  1
 24 25  1  0
 24 60  1  1
 25 61  1  0
 26 27  1  6
 26 28  1  0
 27 62  1  0
 28 29  1  0
 28 63  1  0
 28 64  1  0
 29 65  1  0
M  END
>  <i_m_ct_stereo_status>  (326) 
1

>  <s_m_source_file>  (326) 
/var/tmp/pbs.5076255.sched01/tmpgyl_4d9e/126kfdajayx.sdf

>  <i_m_source_file_index>  (326) 
40

>  <i_lp_mmshare_version>  (326) 
48012

>  <i_f3d_flags>  (326) 
0

>  <s_epik_input>  (326) 
W09IXVtDQEBdMTJbQ0BASF0zQyhbQ0gzXSkoW0NIM10pW0NASF00W0NASF0oW0NIXT1DKFtDSDNdKVtDQEBIXTNbT0hdKVtDQEBIXShbQ0gyXVtDSDJdW0NASF0xW0NIM10pW0NAQF0oW09IXSkoW0NIMl1bT0hdKVtDQEBdNChbQ0gyXVtPSF0pW0NASF0oW09IXSlbQ0BASF0yW09IXQ==

>  <s_epik_cmdline>  (326) 
J2VwaWtfcHl0aG9uJywgJy1waHQnLCAnMi4wJywgJy1waCcsICc3LjAnLCAnLXRuJywgJzgnLCAnLW1hJywgJzIwMCcsICctaW1hZScsICc8aW5maWxlLm1hZT4nLCAnLW9tYWUnLCAnPG91dGZpbGUubWFlPic=

>  <r_lp_tautomer_probability>  (326) 
1

>  <r_epik_Ionization_Penalty>  (326) 
1.52615e-06

>  <r_epik_Ionization_Penalty_Charging>  (326) 
0

>  <r_epik_Ionization_Penalty_Neutral>  (326) 
1.52615e-06

>  <r_epik_State_Penalty>  (326) 
-0

>  <r_epik_Charging_Adjusted_Penalty>  (326) 
0

>  <i_epik_Tot_Q>  (326) 
0

>  <i_epik_Tot_abs_Q>  (326) 
0

>  <s_lp_Force_Field>  (326) 
OPLS3e

>  <r_lp_Energy>  (326) 
141.125

>  <b_lp_Chiralities_Consistent>  (326) 
1

>  <s_lp_Variant>  (326) 
112:0-1

>  <s_i_glide_gridfile>  (326) 
pfpi4k_grid

>  <i_i_glide_lignum>  (326) 
40

>  <i_i_glide_rotatable_bonds>  (326) 
9

>  <r_i_docking_score>  (326) 
-2.78883

>  <r_i_glide_ligand_efficiency>  (326) 
-0.0961664

>  <r_i_glide_ligand_efficiency_sa>  (326) 
-0.295454

>  <r_i_glide_ligand_efficiency_ln>  (326) 
-0.63857

>  <r_i_glide_gscore>  (326) 
-2.78883

>  <r_i_glide_lipo>  (326) 
-0.0427848

>  <r_i_glide_hbond>  (326) 
0

>  <r_i_glide_metal>  (326) 
-0

>  <r_i_glide_rewards>  (326) 
-1.09647

>  <r_i_glide_evdw>  (326) 
-15.2509

>  <r_i_glide_ecoul>  (326) 
-7.45856

>  <r_i_glide_erotb>  (326) 
0.231764

>  <r_i_glide_esite>  (326) 
0

>  <r_i_glide_emodel>  (326) 
-30.071

>  <r_i_glide_energy>  (326) 
-22.7095

>  <r_i_glide_einternal>  (326) 
3.38418

>  <r_i_glide_intrahb_reward>  (326) 
-0.5

>  <i_i_glide_confnum>  (326) 
3

>  <i_i_glide_posenum>  (326) 
13

>  <r_i_glide_eff_state_penalty>  (326) 
0

>  <ligand_id>  (326) 
112

>  <original_smiles>  (326) 
CC1=CC2C3CCC(C)C4(O)C(O)C(O)C(CO)(C2C(C)(C)C4C1O)C3(O)CO

>  <smiles>  (326) 
[H]OC([H])([H])C1(O[H])C2([H])C([H])([H])C([H])([H])C([H])(C([H])([H])[H])C3(O[H])C([H])(O[H])C([H])(O[H])C1(C([H])([H])O[H])C1([H])C2([H])C([H])=C(C([H])([H])[H])C([H])(O[H])C3([H])C1(C([H])([H])[H])C([H])([H])[H]

$$$$
112:0:2
     RDKit          3D

 65 68  0  0  1  0  0  0  0  0999 V2000
   -2.4964    3.3592    2.7981 C   0  0  0  0  0  0  0  0  0  0  0  0
   -1.4318    2.6546    3.6096 C   0  0  0  0  0  0  0  0  0  0  0  0
   -1.1434    1.3438    3.3713 C   0  0  0  0  0  0  0  0  0  0  0  0
   -0.0571    0.6040    4.0990 C   0  0  2  0  0  0  0  0  0  0  0  0
    0.8396   -0.3953    3.4001 C   0  0  1  0  0  0  0  0  0  0  0  0
    1.9486    0.3552    2.5967 C   0  0  0  0  0  0  0  0  0  0  0  0
    2.9257    1.3304    3.3339 C   0  0  0  0  0  0  0  0  0  0  0  0
    2.4708    2.6990    3.9664 C   0  0  1  0  0  0  0  0  0  0  0  0
    1.9228    3.6181    2.8581 C   0  0  0  0  0  0  0  0  0  0  0  0
    1.7986    2.7737    5.4412 C   0  0  2  0  0  0  0  0  0  0  0  0
    2.2267    4.0783    5.7918 O   0  0  0  0  0  0  0  0  0  0  0  0
    2.5919    1.7947    6.3878 C   0  0  1  0  0  0  0  0  0  0  0  0
    2.6669    2.2922    7.7111 O   0  0  0  0  0  0  0  0  0  0  0  0
    2.3900    0.2163    6.3398 C   0  0  1  0  0  0  0  0  0  0  0  0
    2.9977   -0.3193    7.5025 O   0  0  0  0  0  0  0  0  0  0  0  0
    1.0558   -0.5814    5.9339 C   0  0  1  0  0  0  0  0  0  0  0  0
    0.7029   -1.5986    7.0970 C   0  0  0  0  0  0  0  0  0  0  0  0
   -0.5131   -2.3055    6.9884 O   0  0  0  0  0  0  0  0  0  0  0  0
   -0.1972    0.3091    5.5955 C   0  0  1  0  0  0  0  0  0  0  0  0
   -0.4869    1.5777    6.4516 C   0  0  0  0  0  0  0  0  0  0  0  0
   -2.0371    1.7208    6.5713 C   0  0  0  0  0  0  0  0  0  0  0  0
   -0.1678    1.4210    7.9703 C   0  0  0  0  0  0  0  0  0  0  0  0
    0.1993    2.8562    5.7769 C   0  0  2  0  0  0  0  0  0  0  0  0
   -0.7810    3.5232    4.7119 C   0  0  1  0  0  0  0  0  0  0  0  0
   -0.3641    4.7959    4.2506 O   0  0  0  0  0  0  0  0  0  0  0  0
    1.2835   -1.3538    4.5466 C   0  0  1  0  0  0  0  0  0  0  0  0
    0.3354   -2.3960    4.4096 O   0  0  0  0  0  0  0  0  0  0  0  0
    2.6252   -2.1025    4.2581 C   0  0  0  0  0  0  0  0  0  0  0  0
    3.0334   -2.9095    5.3293 O   0  0  0  0  0  0  0  0  0  0  0  0
   -3.2639    3.7623    3.4525 H   0  0  0  0  0  0  0  0  0  0  0  0
   -2.9785    2.6705    2.1089 H   0  0  0  0  0  0  0  0  0  0  0  0
   -2.0559    4.1726    2.2203 H   0  0  0  0  0  0  0  0  0  0  0  0
   -1.6664    0.8045    2.6049 H   0  0  0  0  0  0  0  0  0  0  0  0
    0.5664    1.4233    3.9988 H   0  0  0  0  0  0  0  0  0  0  0  0
    0.2629   -0.9315    2.6410 H   0  0  0  0  0  0  0  0  0  0  0  0
    2.5534   -0.3892    2.0724 H   0  0  0  0  0  0  0  0  0  0  0  0
    1.4612    0.9166    1.7968 H   0  0  0  0  0  0  0  0  0  0  0  0
    3.6319    0.8133    3.9691 H   0  0  0  0  0  0  0  0  0  0  0  0
    3.5743    1.6147    2.5124 H   0  0  0  0  0  0  0  0  0  0  0  0
    3.4600    3.1390    4.1218 H   0  0  0  0  0  0  0  0  0  0  0  0
    0.9505    3.2934    2.4952 H   0  0  0  0  0  0  0  0  0  0  0  0
    2.5770    3.5990    1.9893 H   0  0  0  0  0  0  0  0  0  0  0  0
    1.8841    4.6675    3.1495 H   0  0  0  0  0  0  0  0  0  0  0  0
    1.8223    4.6904    5.1856 H   0  0  0  0  0  0  0  0  0  0  0  0
    3.6345    1.9318    6.0954 H   0  0  0  0  0  0  0  0  0  0  0  0
    1.7837    2.4040    8.0412 H   0  0  0  0  0  0  0  0  0  0  0  0
    3.1541   -0.1185    5.6594 H   0  0  0  0  0  0  0  0  0  0  0  0
    2.5730    0.0551    8.2639 H   0  0  0  0  0  0  0  0  0  0  0  0
    1.4883   -2.3509    7.1961 H   0  0  0  0  0  0  0  0  0  0  0  0
    0.6583   -1.1202    8.0702 H   0  0  0  0  0  0  0  0  0  0  0  0
   -0.4602   -2.8013    6.1770 H   0  0  0  0  0  0  0  0  0  0  0  0
   -1.0872   -0.3150    5.6339 H   0  0  0  0  0  0  0  0  0  0  0  0
   -2.3215    2.6218    7.1158 H   0  0  0  0  0  0  0  0  0  0  0  0
   -2.4822    0.8877    7.1107 H   0  0  0  0  0  0  0  0  0  0  0  0
   -2.5704    1.7239    5.6287 H   0  0  0  0  0  0  0  0  0  0  0  0
   -0.2649    2.3684    8.5038 H   0  0  0  0  0  0  0  0  0  0  0  0
    0.7964    1.0118    8.2164 H   0  0  0  0  0  0  0  0  0  0  0  0
   -0.8441    0.7242    8.4654 H   0  0  0  0  0  0  0  0  0  0  0  0
    0.1569    3.5754    6.5966 H   0  0  0  0  0  0  0  0  0  0  0  0
   -1.6398    3.8431    5.3062 H   0  0  0  0  0  0  0  0  0  0  0  0
    0.1596    4.6527    3.4662 H   0  0  0  0  0  0  0  0  0  0  0  0
   -0.5153   -1.9856    4.2995 H   0  0  0  0  0  0  0  0  0  0  0  0
    2.5145   -2.7274    3.3653 H   0  0  0  0  0  0  0  0  0  0  0  0
    3.4578   -1.4352    4.0267 H   0  0  0  0  0  0  0  0  0  0  0  0
    2.3895   -3.5926    5.4525 H   0  0  0  0  0  0  0  0  0  0  0  0
  1  2  1  0
  1 30  1  0
  1 31  1  0
  1 32  1  0
  2 24  1  0
  2  3  2  0
  3  4  1  0
  3 33  1  0
  4 19  1  0
  4  5  1  0
  4 34  1  1
  5 26  1  0
  5  6  1  0
  5 35  1  6
  6  7  1  0
  6 36  1  0
  6 37  1  0
  7  8  1  0
  7 38  1  0
  7 39  1  0
  8  9  1  0
  8 10  1  0
  8 40  1  1
  9 41  1  0
  9 42  1  0
  9 43  1  0
 10 23  1  0
 10 11  1  1
 10 12  1  0
 11 44  1  0
 12 13  1  0
 12 14  1  0
 12 45  1  6
 13 46  1  0
 14 15  1  0
 14 16  1  0
 14 47  1  6
 15 48  1  0
 16 17  1  1
 16 19  1  0
 16 26  1  0
 17 18  1  0
 17 49  1  0
 17 50  1  0
 18 51  1  0
 19 20  1  0
 19 52  1  6
 20 21  1  0
 20 22  1  0
 20 23  1  0
 21 53  1  0
 21 54  1  0
 21 55  1  0
 22 56  1  0
 22 57  1  0
 22 58  1  0
 23 24  1  0
 23 59  1  1
 24 25  1  0
 24 60  1  1
 25 61  1  0
 26 27  1  1
 26 28  1  0
 27 62  1  0
 28 29  1  0
 28 63  1  0
 28 64  1  0
 29 65  1  0
M  END
>  <i_m_ct_stereo_status>  (327) 
1

>  <s_m_source_file>  (327) 
/var/tmp/pbs.5076255.sched01/tmpgyl_4d9e/126kfdajayx.sdf

>  <i_m_source_file_index>  (327) 
40

>  <i_lp_mmshare_version>  (327) 
48012

>  <i_f3d_flags>  (327) 
0

>  <s_epik_input>  (327) 
W09IXVtDQEBdMTJbQ0BASF0zQyhbQ0gzXSkoW0NIM10pW0NASF00W0NASF0oW0NIXT1DKFtDSDNdKVtDQEBIXTNbT0hdKVtDQEBIXShbQ0gyXVtDSDJdW0NASF0xW0NIM10pW0NAQF0oW09IXSkoW0NIMl1bT0hdKVtDQEBdNChbQ0gyXVtPSF0pW0NASF0oW09IXSlbQ0BASF0yW09IXQ==

>  <s_epik_cmdline>  (327) 
J2VwaWtfcHl0aG9uJywgJy1waHQnLCAnMi4wJywgJy1waCcsICc3LjAnLCAnLXRuJywgJzgnLCAnLW1hJywgJzIwMCcsICctaW1hZScsICc8aW5maWxlLm1hZT4nLCAnLW9tYWUnLCAnPG91dGZpbGUubWFlPic=

>  <r_lp_tautomer_probability>  (327) 
1

>  <r_epik_Ionization_Penalty>  (327) 
1.52615e-06

>  <r_epik_Ionization_Penalty_Charging>  (327) 
0

>  <r_epik_Ionization_Penalty_Neutral>  (327) 
1.52615e-06

>  <r_epik_State_Penalty>  (327) 
-0

>  <r_epik_Charging_Adjusted_Penalty>  (327) 
0

>  <i_epik_Tot_Q>  (327) 
0

>  <i_epik_Tot_abs_Q>  (327) 
0

>  <s_lp_Force_Field>  (327) 
OPLS3e

>  <r_lp_Energy>  (327) 
141.125

>  <b_lp_Chiralities_Consistent>  (327) 
1

>  <s_lp_Variant>  (327) 
112:0-1

>  <s_i_glide_gridfile>  (327) 
pfpi4k_grid

>  <i_i_glide_lignum>  (327) 
40

>  <i_i_glide_rotatable_bonds>  (327) 
9

>  <r_i_docking_score>  (327) 
-2.07755

>  <r_i_glide_ligand_efficiency>  (327) 
-0.0716398

>  <r_i_glide_ligand_efficiency_sa>  (327) 
-0.2201

>  <r_i_glide_ligand_efficiency_ln>  (327) 
-0.475707

>  <r_i_glide_gscore>  (327) 
-2.07755

>  <r_i_glide_lipo>  (327) 
0

>  <r_i_glide_hbond>  (327) 
0

>  <r_i_glide_metal>  (327) 
-0

>  <r_i_glide_rewards>  (327) 
-0.596475

>  <r_i_glide_evdw>  (327) 
-17.5132

>  <r_i_glide_ecoul>  (327) 
-5.58122

>  <r_i_glide_erotb>  (327) 
0.231764

>  <r_i_glide_esite>  (327) 
0

>  <r_i_glide_emodel>  (327) 
-24.2283

>  <r_i_glide_energy>  (327) 
-23.0944

>  <r_i_glide_einternal>  (327) 
3.74265

>  <r_i_glide_intrahb_reward>  (327) 
-0

>  <i_i_glide_confnum>  (327) 
5

>  <i_i_glide_posenum>  (327) 
1

>  <r_i_glide_eff_state_penalty>  (327) 
0

>  <ligand_id>  (327) 
112

>  <original_smiles>  (327) 
CC1=CC2C3CCC(C)C4(O)C(O)C(O)C(CO)(C2C(C)(C)C4C1O)C3(O)CO

>  <smiles>  (327) 
[H]OC([H])([H])C1(O[H])C2([H])C([H])([H])C([H])([H])C([H])(C([H])([H])[H])C3(O[H])C([H])(O[H])C([H])(O[H])C1(C([H])([H])O[H])C1([H])C2([H])C([H])=C(C([H])([H])[H])C([H])(O[H])C3([H])C1(C([H])([H])[H])C([H])([H])[H]

$$$$
