0:0:0
     RDKit          3D

 30 32  0  0  1  0  0  0  0  0999 V2000
    2.8987   -4.4203    0.8980 C   0  0  0  0  0  0  0  0  0  0  0  0
    4.0854   -4.2233    0.0477 N   0  0  2  0  0  0  0  0  0  0  0  0
    5.3343   -4.0636    0.8524 C   0  0  0  0  0  0  0  0  0  0  0  0
    6.5933   -3.6465    0.0142 C   0  0  0  0  0  0  0  0  0  0  0  0
    6.3363   -2.6547   -1.0035 O   0  0  0  0  0  0  0  0  0  0  0  0
    5.2325   -3.0922   -1.7700 C   0  0  2  0  0  0  0  0  0  0  0  0
    4.7459   -2.3935   -3.0528 C   0  0  1  0  0  0  0  0  0  0  0  0
    3.4411   -3.1833   -3.2135 C   0  0  0  0  0  0  0  0  0  0  0  0
    2.8995   -2.8190   -1.8350 C   0  0  2  0  0  0  0  0  0  0  0  0
    2.9330   -1.2886   -2.0383 C   0  0  0  0  0  0  0  0  0  0  0  0
    4.2228   -0.9757   -2.7865 C   0  0  2  0  0  0  0  0  0  0  0  0
    3.7788   -0.1184   -4.2966 Cl  0  0  0  0  0  0  0  0  0  0  0  0
    4.0342   -3.0418   -0.8220 C   0  0  1  0  0  0  0  0  0  0  0  0
    2.7097   -3.5504    1.5368 H   0  0  0  0  0  0  0  0  0  0  0  0
    3.0577   -5.2920    1.5418 H   0  0  0  0  0  0  0  0  0  0  0  0
    2.0157   -4.6138    0.2849 H   0  0  0  0  0  0  0  0  0  0  0  0
    5.1736   -3.2838    1.6091 H   0  0  0  0  0  0  0  0  0  0  0  0
    5.5504   -4.9940    1.3909 H   0  0  0  0  0  0  0  0  0  0  0  0
    7.3682   -3.2774    0.6927 H   0  0  0  0  0  0  0  0  0  0  0  0
    6.9874   -4.5500   -0.4452 H   0  0  0  0  0  0  0  0  0  0  0  0
    5.4202   -4.1303   -2.0610 H   0  0  0  0  0  0  0  0  0  0  0  0
    5.4320   -2.4665   -3.8886 H   0  0  0  0  0  0  0  0  0  0  0  0
    2.8005   -2.8407   -4.0266 H   0  0  0  0  0  0  0  0  0  0  0  0
    3.6161   -4.2463   -3.3769 H   0  0  0  0  0  0  0  0  0  0  0  0
    1.9143   -3.2030   -1.5681 H   0  0  0  0  0  0  0  0  0  0  0  0
    2.1534   -1.0472   -2.7178 H   0  0  0  0  0  0  0  0  0  0  0  0
    2.8256   -0.6897   -1.1214 H   0  0  0  0  0  0  0  0  0  0  0  0
    4.8782   -0.3249   -2.1929 H   0  0  0  0  0  0  0  0  0  0  0  0
    4.0862   -2.1612   -0.1711 H   0  0  0  0  0  0  0  0  0  0  0  0
    4.1781   -5.0346   -0.5609 H   0  0  0  0  0  0  0  0  0  0  0  0
  1  2  1  0
  1 14  1  0
  1 15  1  0
  1 16  1  0
  2 13  1  0
  2  3  1  0
  2 30  1  6
  3  4  1  0
  3 17  1  0
  3 18  1  0
  4  5  1  0
  4 19  1  0
  4 20  1  0
  5  6  1  0
  6 13  1  0
  6  7  1  0
  6 21  1  6
  7 11  1  0
  7  8  1  0
  7 22  1  6
  8  9  1  0
  8 23  1  0
  8 24  1  0
  9 10  1  0
  9 13  1  0
  9 25  1  1
 10 11  1  0
 10 26  1  0
 10 27  1  0
 11 12  1  0
 11 28  1  1
 13 29  1  1
M  CHG  1   2   1
M  END
>  <i_m_ct_stereo_status>  (1) 
1

>  <s_m_source_file>  (1) 
/var/tmp/pbs.5076255.sched01/tmp6mkrr40i/0ze8ciewu.sdf

>  <i_m_source_file_index>  (1) 
1

>  <i_lp_mmshare_version>  (1) 
48012

>  <i_f3d_flags>  (1) 
0

>  <s_epik_input>  (1) 
TzFbQ0gyXVtDSDJdTihbQ0gzXSlbQ0BASF0yW0NAQEhdKFtDSDJdW0NAQEhdM0NsKVtDSDJdW0NAQEhdM1tDQEBIXTEy

>  <s_epik_cmdline>  (1) 
J2VwaWtfcHl0aG9uJywgJy1waHQnLCAnMi4wJywgJy1waCcsICc3LjAnLCAnLXRuJywgJzgnLCAnLW1hJywgJzIwMCcsICctaW1hZScsICc8aW5maWxlLm1hZT4nLCAnLW9tYWUnLCAnPG91dGZpbGUubWFlPic=

>  <r_epik_Ionization_Penalty>  (1) 
0.205869

>  <r_epik_Ionization_Penalty_Charging>  (1) 
0.205869

>  <r_epik_Ionization_Penalty_Neutral>  (1) 
2.63117e-16

>  <r_epik_State_Penalty>  (1) 
0.195834

>  <r_epik_Charging_Adjusted_Penalty>  (1) 
0.401702

>  <i_epik_Tot_Q>  (1) 
1

>  <i_epik_Tot_abs_Q>  (1) 
1

>  <s_lp_Force_Field>  (1) 
OPLS3e

>  <r_lp_Energy>  (1) 
65.0273

>  <b_lp_Chiralities_Consistent>  (1) 
1

>  <s_lp_Variant>  (1) 
0:0-1

>  <s_i_glide_gridfile>  (1) 
pfpi4k_grid

>  <i_i_glide_lignum>  (1) 
1

>  <i_i_glide_rotatable_bonds>  (1) 
0

>  <r_i_docking_score>  (1) 
-3.82199

>  <r_i_glide_ligand_efficiency>  (1) 
-0.294

>  <r_i_glide_ligand_efficiency_sa>  (1) 
-0.691291

>  <r_i_glide_ligand_efficiency_ln>  (1) 
-1.0721

>  <r_i_glide_gscore>  (1) 
-3.82199

>  <r_i_glide_lipo>  (1) 
-0.681158

>  <r_i_glide_hbond>  (1) 
0

>  <r_i_glide_metal>  (1) 
-0

>  <r_i_glide_rewards>  (1) 
-2.02704

>  <r_i_glide_evdw>  (1) 
-12.9153

>  <r_i_glide_ecoul>  (1) 
-3.09682

>  <r_i_glide_erotb>  (1) 
0

>  <r_i_glide_esite>  (1) 
-0.00350994

>  <r_i_glide_emodel>  (1) 
-17.5109

>  <r_i_glide_energy>  (1) 
-16.0121

>  <r_i_glide_einternal>  (1) 
0

>  <r_i_glide_intrahb_reward>  (1) 
-0

>  <i_i_glide_confnum>  (1) 
1

>  <i_i_glide_posenum>  (1) 
4

>  <r_i_glide_eff_state_penalty>  (1) 
0

>  <ligand_id>  (1) 
0

>  <original_smiles>  (1) 
CN1CCOC2C3CC(CC3Cl)C21

>  <smiles>  (1) 
[H]C1([H])OC2([H])C3([H])C([H])([H])C([H])(C([H])([H])C3([H])Cl)C2([H])[N+]([H])(C([H])([H])[H])C1([H])[H]

$$$$
0:1:0
     RDKit          3D

 29 31  0  0  1  0  0  0  0  0999 V2000
    5.2614   -0.4081    1.5008 C   0  0  0  0  0  0  0  0  0  0  0  0
    5.8162   -1.5228    0.7481 N   0  0  0  0  0  0  0  0  0  0  0  0
    7.2366   -1.2767    0.4536 C   0  0  0  0  0  0  0  0  0  0  0  0
    7.8974   -2.2763   -0.5570 C   0  0  0  0  0  0  0  0  0  0  0  0
    7.0506   -2.5641   -1.6850 O   0  0  0  0  0  0  0  0  0  0  0  0
    5.7801   -2.9447   -1.1863 C   0  0  2  0  0  0  0  0  0  0  0  0
    4.6407   -3.4658   -2.0673 C   0  0  1  0  0  0  0  0  0  0  0  0
    3.5422   -3.4544   -0.9936 C   0  0  0  0  0  0  0  0  0  0  0  0
    3.6662   -1.9514   -0.7207 C   0  0  2  0  0  0  0  0  0  0  0  0
    3.3396   -1.4311   -2.1364 C   0  0  0  0  0  0  0  0  0  0  0  0
    4.1371   -2.3922   -3.0478 C   0  0  2  0  0  0  0  0  0  0  0  0
    3.0295   -3.1141   -4.2288 Cl  0  0  0  0  0  0  0  0  0  0  0  0
    5.1792   -1.7007   -0.5399 C   0  0  1  0  0  0  0  0  0  0  0  0
    5.8078   -0.2807    2.4371 H   0  0  0  0  0  0  0  0  0  0  0  0
    4.2150   -0.5812    1.7547 H   0  0  0  0  0  0  0  0  0  0  0  0
    5.3289    0.5220    0.9319 H   0  0  0  0  0  0  0  0  0  0  0  0
    7.3241   -0.2611    0.0802 H   0  0  0  0  0  0  0  0  0  0  0  0
    7.8102   -1.2624    1.3699 H   0  0  0  0  0  0  0  0  0  0  0  0
    8.8489   -1.8759   -0.9108 H   0  0  0  0  0  0  0  0  0  0  0  0
    8.1340   -3.2122   -0.0520 H   0  0  0  0  0  0  0  0  0  0  0  0
    5.9482   -3.7236   -0.4343 H   0  0  0  0  0  0  0  0  0  0  0  0
    4.8454   -4.4400   -2.5145 H   0  0  0  0  0  0  0  0  0  0  0  0
    2.5667   -3.7431   -1.3903 H   0  0  0  0  0  0  0  0  0  0  0  0
    3.7566   -4.0806   -0.1235 H   0  0  0  0  0  0  0  0  0  0  0  0
    3.0216   -1.5486    0.0619 H   0  0  0  0  0  0  0  0  0  0  0  0
    2.2702   -1.5302   -2.3221 H   0  0  0  0  0  0  0  0  0  0  0  0
    3.6093   -0.3859   -2.3031 H   0  0  0  0  0  0  0  0  0  0  0  0
    4.9567   -1.9046   -3.5799 H   0  0  0  0  0  0  0  0  0  0  0  0
    5.4231   -0.8198   -1.1382 H   0  0  0  0  0  0  0  0  0  0  0  0
  1  2  1  0
  1 14  1  0
  1 15  1  0
  1 16  1  0
  2 13  1  0
  2  3  1  0
  3  4  1  0
  3 17  1  0
  3 18  1  0
  4  5  1  0
  4 19  1  0
  4 20  1  0
  5  6  1  0
  6 13  1  0
  6  7  1  0
  6 21  1  1
  7 11  1  0
  7  8  1  0
  7 22  1  6
  8  9  1  0
  8 23  1  0
  8 24  1  0
  9 10  1  0
  9 13  1  0
  9 25  1  1
 10 11  1  0
 10 26  1  0
 10 27  1  0
 11 12  1  0
 11 28  1  6
 13 29  1  6
M  END
>  <i_m_ct_stereo_status>  (2) 
1

>  <s_m_source_file>  (2) 
/var/tmp/pbs.5076255.sched01/tmp6mkrr40i/0ze8ciewu.sdf

>  <i_m_source_file_index>  (2) 
2

>  <i_lp_mmshare_version>  (2) 
48012

>  <i_f3d_flags>  (2) 
0

>  <s_epik_input>  (2) 
TzFbQ0gyXVtDSDJdTihbQ0gzXSlbQ0BASF0yW0NAQEhdKFtDSDJdW0NAQEhdM0NsKVtDSDJdW0NAQEhdM1tDQEBIXTEy

>  <s_epik_cmdline>  (2) 
J2VwaWtfcHl0aG9uJywgJy1waHQnLCAnMi4wJywgJy1waCcsICc3LjAnLCAnLXRuJywgJzgnLCAnLW1hJywgJzIwMCcsICctaW1hZScsICc8aW5maWxlLm1hZT4nLCAnLW9tYWUnLCAnPG91dGZpbGUubWFlPic=

>  <r_epik_Ionization_Penalty>  (2) 
0.726267

>  <r_epik_Ionization_Penalty_Charging>  (2) 
0

>  <r_epik_Ionization_Penalty_Neutral>  (2) 
0.726267

>  <r_epik_State_Penalty>  (2) 
0.75114

>  <r_epik_Charging_Adjusted_Penalty>  (2) 
0.75114

>  <i_epik_Tot_Q>  (2) 
0

>  <i_epik_Tot_abs_Q>  (2) 
0

>  <s_lp_Force_Field>  (2) 
OPLS3e

>  <r_lp_Energy>  (2) 
53.5805

>  <b_lp_Chiralities_Consistent>  (2) 
1

>  <s_lp_Variant>  (2) 
0:0-2

>  <s_i_glide_gridfile>  (2) 
pfpi4k_grid

>  <i_i_glide_lignum>  (2) 
2

>  <i_i_glide_rotatable_bonds>  (2) 
0

>  <r_i_docking_score>  (2) 
-3.41436

>  <r_i_glide_ligand_efficiency>  (2) 
-0.262643

>  <r_i_glide_ligand_efficiency_sa>  (2) 
-0.617561

>  <r_i_glide_ligand_efficiency_ln>  (2) 
-0.957758

>  <r_i_glide_gscore>  (2) 
-3.41436

>  <r_i_glide_lipo>  (2) 
-0.373898

>  <r_i_glide_hbond>  (2) 
-0.144636

>  <r_i_glide_metal>  (2) 
-0

>  <r_i_glide_rewards>  (2) 
-2.03391

>  <r_i_glide_evdw>  (2) 
-15.8511

>  <r_i_glide_ecoul>  (2) 
-0.462367

>  <r_i_glide_erotb>  (2) 
0

>  <r_i_glide_esite>  (2) 
0

>  <r_i_glide_emodel>  (2) 
-19.3935

>  <r_i_glide_energy>  (2) 
-16.3135

>  <r_i_glide_einternal>  (2) 
0

>  <r_i_glide_intrahb_reward>  (2) 
-0

>  <i_i_glide_confnum>  (2) 
1

>  <i_i_glide_posenum>  (2) 
6

>  <r_i_glide_eff_state_penalty>  (2) 
0

>  <ligand_id>  (2) 
0

>  <original_smiles>  (2) 
CN1CCOC2C3CC(CC3Cl)C21

>  <smiles>  (2) 
[H]C([H])([H])N1C([H])([H])C([H])([H])OC2([H])C1([H])C1([H])C([H])([H])C([H])(Cl)C2([H])C1([H])[H]

$$$$
0:1:1
     RDKit          3D

 29 31  0  0  1  0  0  0  0  0999 V2000
    4.0802   -4.9221   -0.3230 C   0  0  0  0  0  0  0  0  0  0  0  0
    5.0291   -4.2811   -1.2224 N   0  0  0  0  0  0  0  0  0  0  0  0
    6.1978   -3.8358   -0.4226 C   0  0  0  0  0  0  0  0  0  0  0  0
    7.1692   -2.8568   -1.1512 C   0  0  0  0  0  0  0  0  0  0  0  0
    6.4904   -1.8500   -1.9363 O   0  0  0  0  0  0  0  0  0  0  0  0
    5.5642   -2.5085   -2.7973 C   0  0  2  0  0  0  0  0  0  0  0  0
    4.7324   -1.7835   -3.8987 C   0  0  1  0  0  0  0  0  0  0  0  0
    3.8760   -2.9999   -4.2721 C   0  0  0  0  0  0  0  0  0  0  0  0
    3.2876   -3.1212   -2.8700 C   0  0  2  0  0  0  0  0  0  0  0  0
    2.6969   -1.7183   -2.8115 C   0  0  0  0  0  0  0  0  0  0  0  0
    3.7616   -0.7805   -3.3577 C   0  0  2  0  0  0  0  0  0  0  0  0
    3.1843    0.2044   -4.7358 Cl  0  0  0  0  0  0  0  0  0  0  0  0
    4.4947   -3.1038   -1.8914 C   0  0  1  0  0  0  0  0  0  0  0  0
    4.5175   -5.8491    0.0722 H   0  0  0  0  0  0  0  0  0  0  0  0
    3.1325   -5.1320   -0.8052 H   0  0  0  0  0  0  0  0  0  0  0  0
    3.7640   -4.2451    0.4772 H   0  0  0  0  0  0  0  0  0  0  0  0
    5.7982   -3.3216    0.4565 H   0  0  0  0  0  0  0  0  0  0  0  0
    6.7404   -4.7307   -0.0627 H   0  0  0  0  0  0  0  0  0  0  0  0
    7.7997   -2.3900   -0.3948 H   0  0  0  0  0  0  0  0  0  0  0  0
    7.8286   -3.4286   -1.8061 H   0  0  0  0  0  0  0  0  0  0  0  0
    6.1285   -3.3104   -3.2874 H   0  0  0  0  0  0  0  0  0  0  0  0
    5.1782   -1.2483   -4.7270 H   0  0  0  0  0  0  0  0  0  0  0  0
    3.1001   -2.7612   -4.9923 H   0  0  0  0  0  0  0  0  0  0  0  0
    4.4023   -3.9083   -4.6062 H   0  0  0  0  0  0  0  0  0  0  0  0
    2.5387   -3.8768   -2.6993 H   0  0  0  0  0  0  0  0  0  0  0  0
    1.8131   -1.7890   -3.3906 H   0  0  0  0  0  0  0  0  0  0  0  0
    2.5950   -1.4002   -1.7996 H   0  0  0  0  0  0  0  0  0  0  0  0
    4.2442   -0.1248   -2.6473 H   0  0  0  0  0  0  0  0  0  0  0  0
    4.2751   -2.3895   -1.0970 H   0  0  0  0  0  0  0  0  0  0  0  0
  1  2  1  0
  1 14  1  0
  1 15  1  0
  1 16  1  0
  2 13  1  0
  2  3  1  0
  3  4  1  0
  3 17  1  0
  3 18  1  0
  4  5  1  0
  4 19  1  0
  4 20  1  0
  5  6  1  0
  6 13  1  0
  6  7  1  0
  6 21  1  6
  7 11  1  0
  7  8  1  0
  7 22  1  6
  8  9  1  0
  8 23  1  0
  8 24  1  0
  9 10  1  0
  9 13  1  0
  9 25  1  6
 10 11  1  0
 10 26  1  0
 10 27  1  0
 11 12  1  0
 11 28  1  1
 13 29  1  1
M  END
>  <i_m_ct_stereo_status>  (3) 
1

>  <s_m_source_file>  (3) 
/var/tmp/pbs.5076255.sched01/tmp6mkrr40i/0ze8ciewu.sdf

>  <i_m_source_file_index>  (3) 
2

>  <i_lp_mmshare_version>  (3) 
48012

>  <i_f3d_flags>  (3) 
0

>  <s_epik_input>  (3) 
TzFbQ0gyXVtDSDJdTihbQ0gzXSlbQ0BASF0yW0NAQEhdKFtDSDJdW0NAQEhdM0NsKVtDSDJdW0NAQEhdM1tDQEBIXTEy

>  <s_epik_cmdline>  (3) 
J2VwaWtfcHl0aG9uJywgJy1waHQnLCAnMi4wJywgJy1waCcsICc3LjAnLCAnLXRuJywgJzgnLCAnLW1hJywgJzIwMCcsICctaW1hZScsICc8aW5maWxlLm1hZT4nLCAnLW9tYWUnLCAnPG91dGZpbGUubWFlPic=

>  <r_epik_Ionization_Penalty>  (3) 
0.726267

>  <r_epik_Ionization_Penalty_Charging>  (3) 
0

>  <r_epik_Ionization_Penalty_Neutral>  (3) 
0.726267

>  <r_epik_State_Penalty>  (3) 
0.75114

>  <r_epik_Charging_Adjusted_Penalty>  (3) 
0.75114

>  <i_epik_Tot_Q>  (3) 
0

>  <i_epik_Tot_abs_Q>  (3) 
0

>  <s_lp_Force_Field>  (3) 
OPLS3e

>  <r_lp_Energy>  (3) 
53.5805

>  <b_lp_Chiralities_Consistent>  (3) 
1

>  <s_lp_Variant>  (3) 
0:0-2

>  <s_i_glide_gridfile>  (3) 
pfpi4k_grid

>  <i_i_glide_lignum>  (3) 
2

>  <i_i_glide_rotatable_bonds>  (3) 
0

>  <r_i_docking_score>  (3) 
-3.33901

>  <r_i_glide_ligand_efficiency>  (3) 
-0.256847

>  <r_i_glide_ligand_efficiency_sa>  (3) 
-0.603933

>  <r_i_glide_ligand_efficiency_ln>  (3) 
-0.936622

>  <r_i_glide_gscore>  (3) 
-3.33901

>  <r_i_glide_lipo>  (3) 
-0.388821

>  <r_i_glide_hbond>  (3) 
-0.143402

>  <r_i_glide_metal>  (3) 
-0

>  <r_i_glide_rewards>  (3) 
-2.03391

>  <r_i_glide_evdw>  (3) 
-9.99724

>  <r_i_glide_ecoul>  (3) 
-1.82008

>  <r_i_glide_erotb>  (3) 
0

>  <r_i_glide_esite>  (3) 
0

>  <r_i_glide_emodel>  (3) 
-12.5867

>  <r_i_glide_energy>  (3) 
-11.8173

>  <r_i_glide_einternal>  (3) 
0

>  <r_i_glide_intrahb_reward>  (3) 
-0

>  <i_i_glide_confnum>  (3) 
1

>  <i_i_glide_posenum>  (3) 
1

>  <r_i_glide_eff_state_penalty>  (3) 
0

>  <ligand_id>  (3) 
0

>  <original_smiles>  (3) 
CN1CCOC2C3CC(CC3Cl)C21

>  <smiles>  (3) 
[H]C([H])([H])N1C([H])([H])C([H])([H])OC2([H])C1([H])C1([H])C([H])([H])C([H])(Cl)C2([H])C1([H])[H]

$$$$
0:1:2
     RDKit          3D

 29 31  0  0  1  0  0  0  0  0999 V2000
    3.0795   -1.0283   -2.8302 C   0  0  0  0  0  0  0  0  0  0  0  0
    4.3451   -1.3187   -2.1630 N   0  0  0  0  0  0  0  0  0  0  0  0
    5.0817   -2.3459   -2.9205 C   0  0  0  0  0  0  0  0  0  0  0  0
    6.3465   -2.9331   -2.2108 C   0  0  0  0  0  0  0  0  0  0  0  0
    6.1523   -3.1904   -0.8096 O   0  0  0  0  0  0  0  0  0  0  0  0
    5.5652   -2.0419   -0.2157 C   0  0  2  0  0  0  0  0  0  0  0  0
    5.3200   -1.8948    1.2958 C   0  0  1  0  0  0  0  0  0  0  0  0
    4.5309   -0.5802    1.2288 C   0  0  0  0  0  0  0  0  0  0  0  0
    3.4281   -1.1509    0.3346 C   0  0  2  0  0  0  0  0  0  0  0  0
    2.9337   -2.2760    1.2668 C   0  0  0  0  0  0  0  0  0  0  0  0
    4.2512   -2.8810    1.8169 C   0  0  2  0  0  0  0  0  0  0  0  0
    4.2379   -2.9222    3.6013 Cl  0  0  0  0  0  0  0  0  0  0  0  0
    4.1739   -1.8691   -0.8277 C   0  0  1  0  0  0  0  0  0  0  0  0
    3.2560   -0.6555   -3.8386 H   0  0  0  0  0  0  0  0  0  0  0  0
    2.5044   -0.2642   -2.3193 H   0  0  0  0  0  0  0  0  0  0  0  0
    2.4581   -1.9224   -2.8991 H   0  0  0  0  0  0  0  0  0  0  0  0
    4.4071   -3.1784   -3.1373 H   0  0  0  0  0  0  0  0  0  0  0  0
    5.3657   -1.9431   -3.8894 H   0  0  0  0  0  0  0  0  0  0  0  0
    6.6517   -3.8502   -2.7134 H   0  0  0  0  0  0  0  0  0  0  0  0
    7.1846   -2.2471   -2.3197 H   0  0  0  0  0  0  0  0  0  0  0  0
    6.2024   -1.1936   -0.4892 H   0  0  0  0  0  0  0  0  0  0  0  0
    6.2381   -1.8562    1.8870 H   0  0  0  0  0  0  0  0  0  0  0  0
    4.1642   -0.2505    2.2027 H   0  0  0  0  0  0  0  0  0  0  0  0
    5.0722    0.2491    0.7675 H   0  0  0  0  0  0  0  0  0  0  0  0
    2.6479   -0.4457    0.0706 H   0  0  0  0  0  0  0  0  0  0  0  0
    2.3266   -1.8504    2.0685 H   0  0  0  0  0  0  0  0  0  0  0  0
    2.3194   -3.0136    0.7483 H   0  0  0  0  0  0  0  0  0  0  0  0
    4.4346   -3.8944    1.4604 H   0  0  0  0  0  0  0  0  0  0  0  0
    3.7070   -2.8499   -0.9476 H   0  0  0  0  0  0  0  0  0  0  0  0
  1  2  1  0
  1 14  1  0
  1 15  1  0
  1 16  1  0
  2 13  1  0
  2  3  1  0
  3  4  1  0
  3 17  1  0
  3 18  1  0
  4  5  1  0
  4 19  1  0
  4 20  1  0
  5  6  1  0
  6 13  1  0
  6  7  1  0
  6 21  1  6
  7 11  1  0
  7  8  1  0
  7 22  1  1
  8  9  1  0
  8 23  1  0
  8 24  1  0
  9 10  1  0
  9 13  1  0
  9 25  1  6
 10 11  1  0
 10 26  1  0
 10 27  1  0
 11 12  1  0
 11 28  1  6
 13 29  1  6
M  END
>  <i_m_ct_stereo_status>  (4) 
1

>  <s_m_source_file>  (4) 
/var/tmp/pbs.5076255.sched01/tmp6mkrr40i/0ze8ciewu.sdf

>  <i_m_source_file_index>  (4) 
2

>  <i_lp_mmshare_version>  (4) 
48012

>  <i_f3d_flags>  (4) 
0

>  <s_epik_input>  (4) 
TzFbQ0gyXVtDSDJdTihbQ0gzXSlbQ0BASF0yW0NAQEhdKFtDSDJdW0NAQEhdM0NsKVtDSDJdW0NAQEhdM1tDQEBIXTEy

>  <s_epik_cmdline>  (4) 
J2VwaWtfcHl0aG9uJywgJy1waHQnLCAnMi4wJywgJy1waCcsICc3LjAnLCAnLXRuJywgJzgnLCAnLW1hJywgJzIwMCcsICctaW1hZScsICc8aW5maWxlLm1hZT4nLCAnLW9tYWUnLCAnPG91dGZpbGUubWFlPic=

>  <r_epik_Ionization_Penalty>  (4) 
0.726267

>  <r_epik_Ionization_Penalty_Charging>  (4) 
0

>  <r_epik_Ionization_Penalty_Neutral>  (4) 
0.726267

>  <r_epik_State_Penalty>  (4) 
0.75114

>  <r_epik_Charging_Adjusted_Penalty>  (4) 
0.75114

>  <i_epik_Tot_Q>  (4) 
0

>  <i_epik_Tot_abs_Q>  (4) 
0

>  <s_lp_Force_Field>  (4) 
OPLS3e

>  <r_lp_Energy>  (4) 
53.5805

>  <b_lp_Chiralities_Consistent>  (4) 
1

>  <s_lp_Variant>  (4) 
0:0-2

>  <s_i_glide_gridfile>  (4) 
pfpi4k_grid

>  <i_i_glide_lignum>  (4) 
2

>  <i_i_glide_rotatable_bonds>  (4) 
0

>  <r_i_docking_score>  (4) 
-3.19813

>  <r_i_glide_ligand_efficiency>  (4) 
-0.24601

>  <r_i_glide_ligand_efficiency_sa>  (4) 
-0.578451

>  <r_i_glide_ligand_efficiency_ln>  (4) 
-0.897103

>  <r_i_glide_gscore>  (4) 
-3.19813

>  <r_i_glide_lipo>  (4) 
-0.360096

>  <r_i_glide_hbond>  (4) 
0

>  <r_i_glide_metal>  (4) 
-0

>  <r_i_glide_rewards>  (4) 
-2.03391

>  <r_i_glide_evdw>  (4) 
-14.0307

>  <r_i_glide_ecoul>  (4) 
-0.68389

>  <r_i_glide_erotb>  (4) 
0

>  <r_i_glide_esite>  (4) 
0

>  <r_i_glide_emodel>  (4) 
-17.591

>  <r_i_glide_energy>  (4) 
-14.7146

>  <r_i_glide_einternal>  (4) 
0

>  <r_i_glide_intrahb_reward>  (4) 
-0

>  <i_i_glide_confnum>  (4) 
1

>  <i_i_glide_posenum>  (4) 
2

>  <r_i_glide_eff_state_penalty>  (4) 
0

>  <ligand_id>  (4) 
0

>  <original_smiles>  (4) 
CN1CCOC2C3CC(CC3Cl)C21

>  <smiles>  (4) 
[H]C([H])([H])N1C([H])([H])C([H])([H])OC2([H])C1([H])C1([H])C([H])([H])C([H])(Cl)C2([H])C1([H])[H]

$$$$
3:0:0
     RDKit          3D

 53 57  0  0  1  0  0  0  0  0999 V2000
    4.5663   -7.5723    1.9746 C   0  0  0  0  0  0  0  0  0  0  0  0
    4.1802   -6.1334    2.4243 C   0  0  0  0  0  0  0  0  0  0  0  0
    3.5281   -6.3468    3.8202 C   0  0  0  0  0  0  0  0  0  0  0  0
    5.3621   -5.1357    2.4087 C   0  0  1  0  0  0  0  0  0  0  0  0
    5.7253   -5.1467    0.8980 C   0  0  0  0  0  0  0  0  0  0  0  0
    4.3635   -5.0530    0.1881 C   0  0  1  0  0  0  0  0  0  0  0  0
    3.3298   -5.4184    1.3463 C   0  0  2  0  0  0  0  0  0  0  0  0
    2.6872   -4.1155    1.9505 C   0  0  0  0  0  0  0  0  0  0  0  0
    3.7796   -3.0320    2.0520 C   0  0  1  0  0  0  0  0  0  0  0  0
    3.2646   -1.9200    2.7538 O   0  0  0  0  0  0  0  0  0  0  0  0
    4.8846   -3.7235    2.9395 C   0  0  0  0  0  0  0  0  0  0  0  0
    4.3148   -2.5323    0.6443 C   0  0  2  0  0  0  0  0  0  0  0  0
    5.7799   -1.9803    0.9214 C   0  0  0  0  0  0  0  0  0  0  0  0
    3.7402   -1.3329   -0.1596 C   0  0  0  0  0  0  0  0  0  0  0  0
    4.3270   -1.5684   -1.6032 C   0  0  2  0  0  0  0  0  0  0  0  0
    5.3812   -0.6558   -1.8529 O   0  0  0  0  0  0  0  0  0  0  0  0
    3.3079   -1.5181   -2.7660 C   0  0  1  0  0  0  0  0  0  0  0  0
    3.2450   -0.2586   -3.3852 O   0  0  0  0  0  0  0  0  0  0  0  0
    3.6971   -2.5072   -3.6768 O   0  0  0  0  0  0  0  0  0  0  0  0
    4.6063   -3.4427   -3.0932 C   0  0  0  0  0  0  0  0  0  0  0  0
    4.8287   -3.0261   -1.6330 C   0  0  2  0  0  0  0  0  0  0  0  0
    4.0360   -3.6591   -0.4438 C   0  0  1  0  0  0  0  0  0  0  0  0
    2.5320   -3.8389   -0.9552 C   0  0  0  0  0  0  0  0  0  0  0  0
    5.4399   -7.9291    2.5226 H   0  0  0  0  0  0  0  0  0  0  0  0
    4.7792   -7.6681    0.9108 H   0  0  0  0  0  0  0  0  0  0  0  0
    3.7567   -8.2766    2.1689 H   0  0  0  0  0  0  0  0  0  0  0  0
    3.2296   -5.4500    4.3546 H   0  0  0  0  0  0  0  0  0  0  0  0
    4.2206   -6.8668    4.4829 H   0  0  0  0  0  0  0  0  0  0  0  0
    2.6349   -6.9659    3.7390 H   0  0  0  0  0  0  0  0  0  0  0  0
    6.1950   -5.4988    3.0138 H   0  0  0  0  0  0  0  0  0  0  0  0
    6.4697   -4.4474    0.5438 H   0  0  0  0  0  0  0  0  0  0  0  0
    6.1994   -6.0943    0.6469 H   0  0  0  0  0  0  0  0  0  0  0  0
    4.3262   -5.8119   -0.5943 H   0  0  0  0  0  0  0  0  0  0  0  0
    2.5464   -6.0980    1.0042 H   0  0  0  0  0  0  0  0  0  0  0  0
    1.8364   -3.7516    1.3870 H   0  0  0  0  0  0  0  0  0  0  0  0
    2.2322   -4.3019    2.9193 H   0  0  0  0  0  0  0  0  0  0  0  0
    2.6237   -1.5027    2.2015 H   0  0  0  0  0  0  0  0  0  0  0  0
    4.4767   -3.8399    3.9402 H   0  0  0  0  0  0  0  0  0  0  0  0
    5.7299   -3.0765    3.1603 H   0  0  0  0  0  0  0  0  0  0  0  0
    6.3275   -1.5824    0.0803 H   0  0  0  0  0  0  0  0  0  0  0  0
    6.5132   -2.6469    1.3450 H   0  0  0  0  0  0  0  0  0  0  0  0
    5.7183   -1.1529    1.6288 H   0  0  0  0  0  0  0  0  0  0  0  0
    2.6608   -1.2868   -0.1245 H   0  0  0  0  0  0  0  0  0  0  0  0
    4.0541   -0.3675    0.2408 H   0  0  0  0  0  0  0  0  0  0  0  0
    5.0269    0.2278   -1.7818 H   0  0  0  0  0  0  0  0  0  0  0  0
    2.2913   -1.7603   -2.4583 H   0  0  0  0  0  0  0  0  0  0  0  0
    2.6435    0.2911   -2.8901 H   0  0  0  0  0  0  0  0  0  0  0  0
    4.2428   -4.4581   -3.2109 H   0  0  0  0  0  0  0  0  0  0  0  0
    5.5487   -3.3861   -3.6397 H   0  0  0  0  0  0  0  0  0  0  0  0
    5.8971   -3.1140   -1.4275 H   0  0  0  0  0  0  0  0  0  0  0  0
    1.8334   -3.0596   -0.6693 H   0  0  0  0  0  0  0  0  0  0  0  0
    2.0538   -4.7584   -0.6435 H   0  0  0  0  0  0  0  0  0  0  0  0
    2.4305   -3.9194   -2.0317 H   0  0  0  0  0  0  0  0  0  0  0  0
  1  2  1  0
  1 24  1  0
  1 25  1  0
  1 26  1  0
  2  7  1  0
  2  3  1  0
  2  4  1  0
  3 27  1  0
  3 28  1  0
  3 29  1  0
  4 11  1  0
  4  5  1  0
  4 30  1  1
  5  6  1  0
  5 31  1  0
  5 32  1  0
  6 22  1  0
  6  7  1  0
  6 33  1  6
  7  8  1  0
  7 34  1  6
  8  9  1  0
  8 35  1  0
  8 36  1  0
  9 10  1  1
  9 11  1  0
  9 12  1  0
 10 37  1  0
 11 38  1  0
 11 39  1  0
 12 22  1  0
 12 13  1  1
 12 14  1  0
 13 40  1  0
 13 41  1  0
 13 42  1  0
 14 15  1  0
 14 43  1  0
 14 44  1  0
 15 21  1  0
 15 16  1  6
 15 17  1  0
 16 45  1  0
 17 18  1  0
 17 19  1  0
 17 46  1  1
 18 47  1  0
 19 20  1  0
 20 21  1  0
 20 48  1  0
 20 49  1  0
 21 22  1  0
 21 50  1  1
 22 23  1  6
 23 51  1  0
 23 52  1  0
 23 53  1  0
M  END
>  <i_m_ct_stereo_status>  (5) 
1

>  <s_m_source_file>  (5) 
/var/tmp/pbs.5076255.sched01/tmp6mkrr40i/0ze8ciewu.sdf

>  <i_m_source_file_index>  (5) 
6

>  <i_lp_mmshare_version>  (5) 
48012

>  <i_f3d_flags>  (5) 
0

>  <s_epik_input>  (5) 
W0NIMl0xW0NAQEhdKFtDSDJdMilDKFtDSDNdKShbQ0gzXSlbQ0BASF0oW0NIMl0zKVtDQEhdMVtDQEBdKFtDSDNdKShbQ0BdNChbQ0gzXSlbQ0BdMjNbT0hdKVtDQEBIXTVbQ0BAXShbQ0gyXTQpKFtPSF0pW0NAQEhdKFtPSF0pT1tDSDJdNQ==

>  <s_epik_cmdline>  (5) 
J2VwaWtfcHl0aG9uJywgJy1waHQnLCAnMi4wJywgJy1waCcsICc3LjAnLCAnLXRuJywgJzgnLCAnLW1hJywgJzIwMCcsICctaW1hZScsICc8aW5maWxlLm1hZT4nLCAnLW9tYWUnLCAnPG91dGZpbGUubWFlPic=

>  <r_lp_tautomer_probability>  (5) 
1

>  <r_epik_Ionization_Penalty>  (5) 
3.77443e-06

>  <r_epik_Ionization_Penalty_Charging>  (5) 
0

>  <r_epik_Ionization_Penalty_Neutral>  (5) 
3.77443e-06

>  <r_epik_State_Penalty>  (5) 
-0

>  <r_epik_Charging_Adjusted_Penalty>  (5) 
0

>  <i_epik_Tot_Q>  (5) 
0

>  <i_epik_Tot_abs_Q>  (5) 
0

>  <s_epik_Chemistry_Notes>  (5) 
This compound contains an acetal/aminal-like group ( X-CH(R)-Y where X, Y are N, S, or O) that may be acid/base labile, releasing an aldehyde.

>  <s_lp_Force_Field>  (5) 
OPLS3e

>  <r_lp_Energy>  (5) 
103.409

>  <b_lp_Chiralities_Consistent>  (5) 
1

>  <s_lp_Variant>  (5) 
3:0-1

>  <s_i_glide_gridfile>  (5) 
pfpi4k_grid

>  <i_i_glide_lignum>  (5) 
6

>  <i_i_glide_rotatable_bonds>  (5) 
3

>  <r_i_docking_score>  (5) 
-4.12064

>  <r_i_glide_ligand_efficiency>  (5) 
-0.179158

>  <r_i_glide_ligand_efficiency_sa>  (5) 
-0.509502

>  <r_i_glide_ligand_efficiency_ln>  (5) 
-0.996407

>  <r_i_glide_gscore>  (5) 
-4.12064

>  <r_i_glide_lipo>  (5) 
-0.406173

>  <r_i_glide_hbond>  (5) 
0

>  <r_i_glide_metal>  (5) 
-0

>  <r_i_glide_rewards>  (5) 
-1.21064

>  <r_i_glide_evdw>  (5) 
-24.3928

>  <r_i_glide_ecoul>  (5) 
-8.29091

>  <r_i_glide_erotb>  (5) 
0

>  <r_i_glide_esite>  (5) 
-0.0405414

>  <r_i_glide_emodel>  (5) 
-40.2049

>  <r_i_glide_energy>  (5) 
-32.6837

>  <r_i_glide_einternal>  (5) 
2.15209

>  <r_i_glide_intrahb_reward>  (5) 
-0

>  <i_i_glide_confnum>  (5) 
1

>  <i_i_glide_posenum>  (5) 
14

>  <r_i_glide_eff_state_penalty>  (5) 
0

>  <ligand_id>  (5) 
3

>  <original_smiles>  (5) 
CC1(C)C2CC3C1CC(O)(C2)C1(C)CC2(O)C(O)OCC2C31C

>  <smiles>  (5) 
[H]OC1([H])OC([H])([H])C2([H])C1(O[H])C([H])([H])C1(C([H])([H])[H])C3(O[H])C([H])([H])C4([H])C([H])([H])C([H])(C([H])(C3([H])[H])C4(C([H])([H])[H])C([H])([H])[H])C21C([H])([H])[H]

$$$$
3:0:1
     RDKit          3D

 53 57  0  0  1  0  0  0  0  0999 V2000
    4.1860   -0.6021   -3.3747 C   0  0  0  0  0  0  0  0  0  0  0  0
    4.0138   -2.0102   -2.7688 C   0  0  0  0  0  0  0  0  0  0  0  0
    3.2714   -2.7687   -3.8969 C   0  0  0  0  0  0  0  0  0  0  0  0
    5.3159   -2.6420   -2.2250 C   0  0  1  0  0  0  0  0  0  0  0  0
    5.6718   -1.6344   -1.0804 C   0  0  0  0  0  0  0  0  0  0  0  0
    4.3450   -1.3908   -0.3686 C   0  0  1  0  0  0  0  0  0  0  0  0
    3.3034   -1.9028   -1.4416 C   0  0  2  0  0  0  0  0  0  0  0  0
    2.7339   -3.3015   -1.0258 C   0  0  0  0  0  0  0  0  0  0  0  0
    3.9303   -4.1089   -0.4883 C   0  0  1  0  0  0  0  0  0  0  0  0
    3.5442   -5.4261   -0.2612 O   0  0  0  0  0  0  0  0  0  0  0  0
    4.9699   -4.0904   -1.6913 C   0  0  0  0  0  0  0  0  0  0  0  0
    4.4948   -3.6065    0.8911 C   0  0  2  0  0  0  0  0  0  0  0  0
    6.0070   -4.0971    0.9191 C   0  0  0  0  0  0  0  0  0  0  0  0
    3.9993   -4.0627    2.2957 C   0  0  0  0  0  0  0  0  0  0  0  0
    4.5693   -2.9583    3.2365 C   0  0  2  0  0  0  0  0  0  0  0  0
    5.5844   -3.5610    3.9869 O   0  0  0  0  0  0  0  0  0  0  0  0
    3.5599   -2.3200    4.2453 C   0  0  1  0  0  0  0  0  0  0  0  0
    3.6804   -2.9086    5.5134 O   0  0  0  0  0  0  0  0  0  0  0  0
    3.8831   -0.9564    4.2680 O   0  0  0  0  0  0  0  0  0  0  0  0
    4.7191   -0.5306    3.1740 C   0  0  0  0  0  0  0  0  0  0  0  0
    5.0069   -1.7753    2.3107 C   0  0  2  0  0  0  0  0  0  0  0  0
    4.1620   -2.0808    1.0434 C   0  0  1  0  0  0  0  0  0  0  0  0
    2.6843   -1.7099    1.4456 C   0  0  0  0  0  0  0  0  0  0  0  0
    4.9499   -0.6619   -4.1500 H   0  0  0  0  0  0  0  0  0  0  0  0
    4.4255    0.1717   -2.6466 H   0  0  0  0  0  0  0  0  0  0  0  0
    3.2637   -0.2427   -3.8394 H   0  0  0  0  0  0  0  0  0  0  0  0
    3.0279   -3.8188   -3.7337 H   0  0  0  0  0  0  0  0  0  0  0  0
    3.9029   -2.7303   -4.7732 H   0  0  0  0  0  0  0  0  0  0  0  0
    2.3268   -2.2642   -4.1238 H   0  0  0  0  0  0  0  0  0  0  0  0
    6.0969   -2.6731   -2.9987 H   0  0  0  0  0  0  0  0  0  0  0  0
    6.4979   -1.8784   -0.4083 H   0  0  0  0  0  0  0  0  0  0  0  0
    5.9592   -0.6702   -1.4989 H   0  0  0  0  0  0  0  0  0  0  0  0
    4.1745   -0.3163   -0.2587 H   0  0  0  0  0  0  0  0  0  0  0  0
    2.6258   -1.1039   -1.6529 H   0  0  0  0  0  0  0  0  0  0  0  0
    1.9368   -3.2427   -0.3051 H   0  0  0  0  0  0  0  0  0  0  0  0
    2.2400   -3.8496   -1.8318 H   0  0  0  0  0  0  0  0  0  0  0  0
    3.2591   -5.7660   -1.1161 H   0  0  0  0  0  0  0  0  0  0  0  0
    4.5861   -4.6687   -2.5255 H   0  0  0  0  0  0  0  0  0  0  0  0
    5.8536   -4.6582   -1.4908 H   0  0  0  0  0  0  0  0  0  0  0  0
    6.5895   -3.8271    1.7886 H   0  0  0  0  0  0  0  0  0  0  0  0
    6.6598   -3.7834    0.1195 H   0  0  0  0  0  0  0  0  0  0  0  0
    6.0057   -5.1850    0.8564 H   0  0  0  0  0  0  0  0  0  0  0  0
    2.9198   -4.2246    2.3809 H   0  0  0  0  0  0  0  0  0  0  0  0
    4.4231   -5.0374    2.5482 H   0  0  0  0  0  0  0  0  0  0  0  0
    6.2669   -3.7299    3.3666 H   0  0  0  0  0  0  0  0  0  0  0  0
    2.5115   -2.4316    3.9478 H   0  0  0  0  0  0  0  0  0  0  0  0
    4.6254   -3.0509    5.6259 H   0  0  0  0  0  0  0  0  0  0  0  0
    4.2436    0.2913    2.6180 H   0  0  0  0  0  0  0  0  0  0  0  0
    5.6539   -0.1395    3.5781 H   0  0  0  0  0  0  0  0  0  0  0  0
    6.0587   -1.7475    2.0241 H   0  0  0  0  0  0  0  0  0  0  0  0
    2.0243   -2.5285    1.7280 H   0  0  0  0  0  0  0  0  0  0  0  0
    2.2440   -1.1886    0.6076 H   0  0  0  0  0  0  0  0  0  0  0  0
    2.5509   -0.9746    2.2352 H   0  0  0  0  0  0  0  0  0  0  0  0
  1  2  1  0
  1 24  1  0
  1 25  1  0
  1 26  1  0
  2  7  1  0
  2  3  1  0
  2  4  1  0
  3 27  1  0
  3 28  1  0
  3 29  1  0
  4 11  1  0
  4  5  1  0
  4 30  1  6
  5  6  1  0
  5 31  1  0
  5 32  1  0
  6 22  1  0
  6  7  1  0
  6 33  1  1
  7  8  1  0
  7 34  1  6
  8  9  1  0
  8 35  1  0
  8 36  1  0
  9 10  1  1
  9 11  1  0
  9 12  1  0
 10 37  1  0
 11 38  1  0
 11 39  1  0
 12 22  1  0
 12 13  1  6
 12 14  1  0
 13 40  1  0
 13 41  1  0
 13 42  1  0
 14 15  1  0
 14 43  1  0
 14 44  1  0
 15 21  1  0
 15 16  1  1
 15 17  1  0
 16 45  1  0
 17 18  1  0
 17 19  1  0
 17 46  1  6
 18 47  1  0
 19 20  1  0
 20 21  1  0
 20 48  1  0
 20 49  1  0
 21 22  1  0
 21 50  1  6
 22 23  1  1
 23 51  1  0
 23 52  1  0
 23 53  1  0
M  END
>  <i_m_ct_stereo_status>  (6) 
1

>  <s_m_source_file>  (6) 
/var/tmp/pbs.5076255.sched01/tmp6mkrr40i/0ze8ciewu.sdf

>  <i_m_source_file_index>  (6) 
6

>  <i_lp_mmshare_version>  (6) 
48012

>  <i_f3d_flags>  (6) 
0

>  <s_epik_input>  (6) 
W0NIMl0xW0NAQEhdKFtDSDJdMilDKFtDSDNdKShbQ0gzXSlbQ0BASF0oW0NIMl0zKVtDQEhdMVtDQEBdKFtDSDNdKShbQ0BdNChbQ0gzXSlbQ0BdMjNbT0hdKVtDQEBIXTVbQ0BAXShbQ0gyXTQpKFtPSF0pW0NAQEhdKFtPSF0pT1tDSDJdNQ==

>  <s_epik_cmdline>  (6) 
J2VwaWtfcHl0aG9uJywgJy1waHQnLCAnMi4wJywgJy1waCcsICc3LjAnLCAnLXRuJywgJzgnLCAnLW1hJywgJzIwMCcsICctaW1hZScsICc8aW5maWxlLm1hZT4nLCAnLW9tYWUnLCAnPG91dGZpbGUubWFlPic=

>  <r_lp_tautomer_probability>  (6) 
1

>  <r_epik_Ionization_Penalty>  (6) 
3.77443e-06

>  <r_epik_Ionization_Penalty_Charging>  (6) 
0

>  <r_epik_Ionization_Penalty_Neutral>  (6) 
3.77443e-06

>  <r_epik_State_Penalty>  (6) 
-0

>  <r_epik_Charging_Adjusted_Penalty>  (6) 
0

>  <i_epik_Tot_Q>  (6) 
0

>  <i_epik_Tot_abs_Q>  (6) 
0

>  <s_epik_Chemistry_Notes>  (6) 
This compound contains an acetal/aminal-like group ( X-CH(R)-Y where X, Y are N, S, or O) that may be acid/base labile, releasing an aldehyde.

>  <s_lp_Force_Field>  (6) 
OPLS3e

>  <r_lp_Energy>  (6) 
103.409

>  <b_lp_Chiralities_Consistent>  (6) 
1

>  <s_lp_Variant>  (6) 
3:0-1

>  <s_i_glide_gridfile>  (6) 
pfpi4k_grid

>  <i_i_glide_lignum>  (6) 
6

>  <i_i_glide_rotatable_bonds>  (6) 
3

>  <r_i_docking_score>  (6) 
-3.8904

>  <r_i_glide_ligand_efficiency>  (6) 
-0.169148

>  <r_i_glide_ligand_efficiency_sa>  (6) 
-0.481034

>  <r_i_glide_ligand_efficiency_ln>  (6) 
-0.940734

>  <r_i_glide_gscore>  (6) 
-3.8904

>  <r_i_glide_lipo>  (6) 
-0.76297

>  <r_i_glide_hbond>  (6) 
-0.32

>  <r_i_glide_metal>  (6) 
-0

>  <r_i_glide_rewards>  (6) 
-1.21064

>  <r_i_glide_evdw>  (6) 
-15.1434

>  <r_i_glide_ecoul>  (6) 
-5.59742

>  <r_i_glide_erotb>  (6) 
0

>  <r_i_glide_esite>  (6) 
0

>  <r_i_glide_emodel>  (6) 
-26.976

>  <r_i_glide_energy>  (6) 
-20.7408

>  <r_i_glide_einternal>  (6) 
0.0637128

>  <r_i_glide_intrahb_reward>  (6) 
-0

>  <i_i_glide_confnum>  (6) 
2

>  <i_i_glide_posenum>  (6) 
32

>  <r_i_glide_eff_state_penalty>  (6) 
0

>  <ligand_id>  (6) 
3

>  <original_smiles>  (6) 
CC1(C)C2CC3C1CC(O)(C2)C1(C)CC2(O)C(O)OCC2C31C

>  <smiles>  (6) 
[H]OC1([H])OC([H])([H])C2([H])C1(O[H])C([H])([H])C1(C([H])([H])[H])C3(O[H])C([H])([H])C4([H])C([H])([H])C([H])(C([H])(C3([H])[H])C4(C([H])([H])[H])C([H])([H])[H])C21C([H])([H])[H]

$$$$
3:0:2
     RDKit          3D

 53 57  0  0  1  0  0  0  0  0999 V2000
    3.1389   -2.2689   -2.8441 C   0  0  0  0  0  0  0  0  0  0  0  0
    4.2972   -2.7592   -1.9237 C   0  0  0  0  0  0  0  0  0  0  0  0
    5.2592   -3.4652   -2.9105 C   0  0  0  0  0  0  0  0  0  0  0  0
    4.9514   -1.6408   -1.0799 C   0  0  1  0  0  0  0  0  0  0  0  0
    3.7450   -1.2076   -0.2072 C   0  0  0  0  0  0  0  0  0  0  0  0
    3.1195   -2.5374    0.2537 C   0  0  1  0  0  0  0  0  0  0  0  0
    3.7673   -3.5989   -0.7369 C   0  0  2  0  0  0  0  0  0  0  0  0
    4.9483   -4.3562   -0.0322 C   0  0  0  0  0  0  0  0  0  0  0  0
    5.7423   -3.3362    0.8106 C   0  0  1  0  0  0  0  0  0  0  0  0
    6.9171   -3.9571    1.2752 O   0  0  0  0  0  0  0  0  0  0  0  0
    6.1553   -2.2313   -0.2424 C   0  0  0  0  0  0  0  0  0  0  0  0
    4.9183   -2.7660    2.0493 C   0  0  2  0  0  0  0  0  0  0  0  0
    5.5579   -1.3404    2.3596 C   0  0  0  0  0  0  0  0  0  0  0  0
    4.9010   -3.3651    3.4894 C   0  0  0  0  0  0  0  0  0  0  0  0
    3.6390   -2.6689    4.1346 C   0  0  2  0  0  0  0  0  0  0  0  0
    4.0210   -1.6412    5.0354 O   0  0  0  0  0  0  0  0  0  0  0  0
    2.6518   -3.6341    4.8307 C   0  0  1  0  0  0  0  0  0  0  0  0
    2.9052   -3.7472    6.2157 O   0  0  0  0  0  0  0  0  0  0  0  0
    1.3676   -3.1536    4.5499 O   0  0  0  0  0  0  0  0  0  0  0  0
    1.3663   -2.2256    3.4572 C   0  0  0  0  0  0  0  0  0  0  0  0
    2.8130   -2.0985    2.9614 C   0  0  2  0  0  0  0  0  0  0  0  0
    3.3613   -2.9160    1.7480 C   0  0  1  0  0  0  0  0  0  0  0  0
    2.7012   -4.3673    1.8590 C   0  0  0  0  0  0  0  0  0  0  0  0
    3.4457   -1.4046   -3.4351 H   0  0  0  0  0  0  0  0  0  0  0  0
    2.2272   -1.9961   -2.3166 H   0  0  0  0  0  0  0  0  0  0  0  0
    2.8322   -3.0473   -3.5443 H   0  0  0  0  0  0  0  0  0  0  0  0
    6.1883   -3.8443   -2.4962 H   0  0  0  0  0  0  0  0  0  0  0  0
    5.5419   -2.7740   -3.6991 H   0  0  0  0  0  0  0  0  0  0  0  0
    4.7691   -4.3174   -3.3835 H   0  0  0  0  0  0  0  0  0  0  0  0
    5.2942   -0.8161   -1.7092 H   0  0  0  0  0  0  0  0  0  0  0  0
    3.9024   -0.4772    0.5738 H   0  0  0  0  0  0  0  0  0  0  0  0
    3.0239   -0.6700   -0.8248 H   0  0  0  0  0  0  0  0  0  0  0  0
    2.0470   -2.5212    0.0801 H   0  0  0  0  0  0  0  0  0  0  0  0
    3.0321   -4.3092   -1.1140 H   0  0  0  0  0  0  0  0  0  0  0  0
    4.6203   -5.1966    0.5700 H   0  0  0  0  0  0  0  0  0  0  0  0
    5.5928   -4.8515   -0.7533 H   0  0  0  0  0  0  0  0  0  0  0  0
    6.6609   -4.6596    1.8559 H   0  0  0  0  0  0  0  0  0  0  0  0
    6.8784   -2.6813   -0.9200 H   0  0  0  0  0  0  0  0  0  0  0  0
    6.7679   -1.4407    0.1837 H   0  0  0  0  0  0  0  0  0  0  0  0
    5.1462   -0.7757    3.1822 H   0  0  0  0  0  0  0  0  0  0  0  0
    5.5703   -0.5909    1.5862 H   0  0  0  0  0  0  0  0  0  0  0  0
    6.6082   -1.4697    2.6047 H   0  0  0  0  0  0  0  0  0  0  0  0
    4.8439   -4.4503    3.5095 H   0  0  0  0  0  0  0  0  0  0  0  0
    5.8079   -3.1338    4.0505 H   0  0  0  0  0  0  0  0  0  0  0  0
    4.3843   -2.0480    5.8079 H   0  0  0  0  0  0  0  0  0  0  0  0
    2.6916   -4.6458    4.4322 H   0  0  0  0  0  0  0  0  0  0  0  0
    3.7178   -4.2249    6.3259 H   0  0  0  0  0  0  0  0  0  0  0  0
    0.6770   -2.5180    2.6665 H   0  0  0  0  0  0  0  0  0  0  0  0
    1.0170   -1.2625    3.8354 H   0  0  0  0  0  0  0  0  0  0  0  0
    3.0060   -1.0371    2.7938 H   0  0  0  0  0  0  0  0  0  0  0  0
    3.3194   -5.1259    2.3278 H   0  0  0  0  0  0  0  0  0  0  0  0
    2.4172   -4.8103    0.9116 H   0  0  0  0  0  0  0  0  0  0  0  0
    1.7488   -4.3998    2.3784 H   0  0  0  0  0  0  0  0  0  0  0  0
  1  2  1  0
  1 24  1  0
  1 25  1  0
  1 26  1  0
  2  7  1  0
  2  3  1  0
  2  4  1  0
  3 27  1  0
  3 28  1  0
  3 29  1  0
  4 11  1  0
  4  5  1  0
  4 30  1  6
  5  6  1  0
  5 31  1  0
  5 32  1  0
  6 22  1  0
  6  7  1  0
  6 33  1  1
  7  8  1  0
  7 34  1  6
  8  9  1  0
  8 35  1  0
  8 36  1  0
  9 10  1  1
  9 11  1  0
  9 12  1  0
 10 37  1  0
 11 38  1  0
 11 39  1  0
 12 22  1  0
 12 13  1  1
 12 14  1  0
 13 40  1  0
 13 41  1  0
 13 42  1  0
 14 15  1  0
 14 43  1  0
 14 44  1  0
 15 21  1  0
 15 16  1  1
 15 17  1  0
 16 45  1  0
 17 18  1  0
 17 19  1  0
 17 46  1  6
 18 47  1  0
 19 20  1  0
 20 21  1  0
 20 48  1  0
 20 49  1  0
 21 22  1  0
 21 50  1  6
 22 23  1  6
 23 51  1  0
 23 52  1  0
 23 53  1  0
M  END
>  <i_m_ct_stereo_status>  (7) 
1

>  <s_m_source_file>  (7) 
/var/tmp/pbs.5076255.sched01/tmp6mkrr40i/0ze8ciewu.sdf

>  <i_m_source_file_index>  (7) 
6

>  <i_lp_mmshare_version>  (7) 
48012

>  <i_f3d_flags>  (7) 
0

>  <s_epik_input>  (7) 
W0NIMl0xW0NAQEhdKFtDSDJdMilDKFtDSDNdKShbQ0gzXSlbQ0BASF0oW0NIMl0zKVtDQEhdMVtDQEBdKFtDSDNdKShbQ0BdNChbQ0gzXSlbQ0BdMjNbT0hdKVtDQEBIXTVbQ0BAXShbQ0gyXTQpKFtPSF0pW0NAQEhdKFtPSF0pT1tDSDJdNQ==

>  <s_epik_cmdline>  (7) 
J2VwaWtfcHl0aG9uJywgJy1waHQnLCAnMi4wJywgJy1waCcsICc3LjAnLCAnLXRuJywgJzgnLCAnLW1hJywgJzIwMCcsICctaW1hZScsICc8aW5maWxlLm1hZT4nLCAnLW9tYWUnLCAnPG91dGZpbGUubWFlPic=

>  <r_lp_tautomer_probability>  (7) 
1

>  <r_epik_Ionization_Penalty>  (7) 
3.77443e-06

>  <r_epik_Ionization_Penalty_Charging>  (7) 
0

>  <r_epik_Ionization_Penalty_Neutral>  (7) 
3.77443e-06

>  <r_epik_State_Penalty>  (7) 
-0

>  <r_epik_Charging_Adjusted_Penalty>  (7) 
0

>  <i_epik_Tot_Q>  (7) 
0

>  <i_epik_Tot_abs_Q>  (7) 
0

>  <s_epik_Chemistry_Notes>  (7) 
This compound contains an acetal/aminal-like group ( X-CH(R)-Y where X, Y are N, S, or O) that may be acid/base labile, releasing an aldehyde.

>  <s_lp_Force_Field>  (7) 
OPLS3e

>  <r_lp_Energy>  (7) 
103.409

>  <b_lp_Chiralities_Consistent>  (7) 
1

>  <s_lp_Variant>  (7) 
3:0-1

>  <s_i_glide_gridfile>  (7) 
pfpi4k_grid

>  <i_i_glide_lignum>  (7) 
6

>  <i_i_glide_rotatable_bonds>  (7) 
3

>  <r_i_docking_score>  (7) 
-3.09119

>  <r_i_glide_ligand_efficiency>  (7) 
-0.1344

>  <r_i_glide_ligand_efficiency_sa>  (7) 
-0.382215

>  <r_i_glide_ligand_efficiency_ln>  (7) 
-0.747478

>  <r_i_glide_gscore>  (7) 
-3.09119

>  <r_i_glide_lipo>  (7) 
-0.561466

>  <r_i_glide_hbond>  (7) 
0

>  <r_i_glide_metal>  (7) 
-0

>  <r_i_glide_rewards>  (7) 
-1.21064

>  <r_i_glide_evdw>  (7) 
-23.1109

>  <r_i_glide_ecoul>  (7) 
-1.09025

>  <r_i_glide_erotb>  (7) 
0

>  <r_i_glide_esite>  (7) 
0

>  <r_i_glide_emodel>  (7) 
-29.599

>  <r_i_glide_energy>  (7) 
-24.2012

>  <r_i_glide_einternal>  (7) 
1.91032

>  <r_i_glide_intrahb_reward>  (7) 
-0

>  <i_i_glide_confnum>  (7) 
2

>  <i_i_glide_posenum>  (7) 
34

>  <r_i_glide_eff_state_penalty>  (7) 
0

>  <ligand_id>  (7) 
3

>  <original_smiles>  (7) 
CC1(C)C2CC3C1CC(O)(C2)C1(C)CC2(O)C(O)OCC2C31C

>  <smiles>  (7) 
[H]OC1([H])OC([H])([H])C2([H])C1(O[H])C([H])([H])C1(C([H])([H])[H])C3(O[H])C([H])([H])C4([H])C([H])([H])C([H])(C([H])(C3([H])[H])C4(C([H])([H])[H])C([H])([H])[H])C21C([H])([H])[H]

$$$$
4:0:0
     RDKit          3D

 60 64  0  0  1  0  0  0  0  0999 V2000
   -0.6800    1.9957    8.3396 C   0  0  0  0  0  0  0  0  0  0  0  0
   -0.1745    1.9800    6.8826 C   0  0  2  0  0  0  0  0  0  0  0  0
    1.3575    1.7133    6.8459 C   0  0  0  0  0  0  0  0  0  0  0  0
    1.8338    1.9557    5.4321 C   0  0  0  0  0  0  0  0  0  0  0  0
    1.7120    0.9892    4.4972 C   0  0  0  0  0  0  0  0  0  0  0  0
    0.9206    1.4383    3.3068 C   0  0  1  0  0  0  0  0  0  0  0  0
    1.7330    1.6314    2.1341 O   0  0  0  0  0  0  0  0  0  0  0  0
    0.8051    0.5416    2.1268 C   0  0  1  0  0  0  0  0  0  0  0  0
    1.3581   -0.8458    2.1588 C   0  0  0  0  0  0  0  0  0  0  0  0
    2.4784   -1.0985    3.2017 C   0  0  1  0  0  0  0  0  0  0  0  0
    2.5601   -2.5114    3.3041 O   0  0  0  0  0  0  0  0  0  0  0  0
    3.8913   -0.5769    2.7338 C   0  0  0  0  0  0  0  0  0  0  0  0
    4.4444    0.3061    3.3849 O   0  0  0  0  0  0  0  0  0  0  0  0
    4.6255   -1.2520    1.5921 C   0  0  0  0  0  0  0  0  0  0  0  0
    6.0486   -1.3166    1.6754 C   0  0  0  0  0  0  0  0  0  0  0  0
    6.8072   -1.8734    0.6103 C   0  0  0  0  0  0  0  0  0  0  0  0
    6.1722   -2.3549   -0.5542 C   0  0  0  0  0  0  0  0  0  0  0  0
    4.7763   -2.2743   -0.6462 C   0  0  0  0  0  0  0  0  0  0  0  0
    4.0216   -1.7454    0.4094 C   0  0  0  0  0  0  0  0  0  0  0  0
    1.9764   -0.5380    4.6096 C   0  0  0  0  0  0  0  0  0  0  0  0
    3.0488   -0.8466    5.7025 C   0  0  0  0  0  0  0  0  0  0  0  0
    0.6462   -1.2209    5.0315 C   0  0  0  0  0  0  0  0  0  0  0  0
   -0.1982    2.4708    3.5522 C   0  0  1  0  0  0  0  0  0  0  0  0
   -1.4119    1.7556    3.7389 O   0  0  0  0  0  0  0  0  0  0  0  0
    0.1033    3.5091    4.7111 C   0  0  2  0  0  0  0  0  0  0  0  0
   -0.2242    4.9243    4.1972 C   0  0  0  0  0  0  0  0  0  0  0  0
    1.6138    3.3938    4.9844 C   0  0  1  0  0  0  0  0  0  0  0  0
    2.0975    4.3183    5.9409 O   0  0  0  0  0  0  0  0  0  0  0  0
   -0.6083    3.2662    6.1005 C   0  0  1  0  0  0  0  0  0  0  0  0
   -2.0226    3.3150    5.9826 O   0  0  0  0  0  0  0  0  0  0  0  0
   -0.2704    2.8389    8.8986 H   0  0  0  0  0  0  0  0  0  0  0  0
   -0.3966    1.0868    8.8723 H   0  0  0  0  0  0  0  0  0  0  0  0
   -1.7668    2.0754    8.3866 H   0  0  0  0  0  0  0  0  0  0  0  0
   -0.6551    1.1344    6.3920 H   0  0  0  0  0  0  0  0  0  0  0  0
    1.8943    2.3686    7.5214 H   0  0  0  0  0  0  0  0  0  0  0  0
    1.5475    0.7096    7.1991 H   0  0  0  0  0  0  0  0  0  0  0  0
    0.0022    0.7017    1.4090 H   0  0  0  0  0  0  0  0  0  0  0  0
    0.5482   -1.5633    2.2973 H   0  0  0  0  0  0  0  0  0  0  0  0
    1.6601   -0.9413    1.1399 H   0  0  0  0  0  0  0  0  0  0  0  0
    2.7983   -2.8633    2.4633 H   0  0  0  0  0  0  0  0  0  0  0  0
    6.5694   -0.9477    2.5501 H   0  0  0  0  0  0  0  0  0  0  0  0
    7.8915   -1.9369    0.6994 H   0  0  0  0  0  0  0  0  0  0  0  0
    6.7289   -2.7902   -1.3729 H   0  0  0  0  0  0  0  0  0  0  0  0
    4.2403   -2.6090   -1.5131 H   0  0  0  0  0  0  0  0  0  0  0  0
    2.9771   -1.7638    0.1427 H   0  0  0  0  0  0  0  0  0  0  0  0
    3.5808   -1.7751    5.4999 H   0  0  0  0  0  0  0  0  0  0  0  0
    2.6439   -0.9615    6.7079 H   0  0  0  0  0  0  0  0  0  0  0  0
    3.8091   -0.0682    5.7646 H   0  0  0  0  0  0  0  0  0  0  0  0
    0.7300   -2.3063    5.0579 H   0  0  0  0  0  0  0  0  0  0  0  0
   -0.1754   -0.9760    4.3618 H   0  0  0  0  0  0  0  0  0  0  0  0
    0.3321   -0.9065    6.0236 H   0  0  0  0  0  0  0  0  0  0  0  0
   -0.3327    3.0044    2.6054 H   0  0  0  0  0  0  0  0  0  0  0  0
   -1.6440    1.3618    2.9105 H   0  0  0  0  0  0  0  0  0  0  0  0
   -0.0317    5.6788    4.9576 H   0  0  0  0  0  0  0  0  0  0  0  0
   -1.2718    4.9910    3.9121 H   0  0  0  0  0  0  0  0  0  0  0  0
    0.3691    5.1812    3.3185 H   0  0  0  0  0  0  0  0  0  0  0  0
    2.1850    3.5656    4.0647 H   0  0  0  0  0  0  0  0  0  0  0  0
    2.1865    5.1559    5.5216 H   0  0  0  0  0  0  0  0  0  0  0  0
   -0.3487    4.1110    6.7371 H   0  0  0  0  0  0  0  0  0  0  0  0
   -2.2752    2.6480    5.3596 H   0  0  0  0  0  0  0  0  0  0  0  0
  1  2  1  0
  1 31  1  0
  1 32  1  0
  1 33  1  0
  2 29  1  0
  2  3  1  0
  2 34  1  6
  3  4  1  0
  3 35  1  0
  3 36  1  0
  4 27  1  0
  4  5  2  0
  5 20  1  0
  5  6  1  0
  6  8  1  0
  6  7  1  6
  6 23  1  0
  7  8  1  0
  8  9  1  0
  8 37  1  6
  9 10  1  0
  9 38  1  0
  9 39  1  0
 10 11  1  1
 10 12  1  0
 10 20  1  0
 11 40  1  0
 12 13  2  0
 12 14  1  0
 14 19  1  0
 14 15  2  0
 15 16  1  0
 15 41  1  0
 16 17  2  0
 16 42  1  0
 17 18  1  0
 17 43  1  0
 18 19  2  0
 18 44  1  0
 19 45  1  0
 20 21  1  0
 20 22  1  0
 21 46  1  0
 21 47  1  0
 21 48  1  0
 22 49  1  0
 22 50  1  0
 22 51  1  0
 23 24  1  0
 23 25  1  0
 23 52  1  6
 24 53  1  0
 25 26  1  6
 25 27  1  0
 25 29  1  0
 26 54  1  0
 26 55  1  0
 26 56  1  0
 27 28  1  0
 27 57  1  6
 28 58  1  0
 29 30  1  0
 29 59  1  1
 30 60  1  0
M  END
>  <i_m_ct_stereo_status>  (8) 
1

>  <s_m_source_file>  (8) 
/var/tmp/pbs.5076255.sched01/tmp6mkrr40i/0ze8ciewu.sdf

>  <i_m_source_file_index>  (8) 
7

>  <i_lp_mmshare_version>  (8) 
48012

>  <i_f3d_flags>  (8) 
0

>  <s_epik_input>  (8) 
W09IXVtDQEhdMVtDQF0oW0NIM10pKFtDQEhdMltPSF0pW0NAQEhdKFtPSF0pW0NASF0oW0NIM10pW0NIMl1DMj1DKFtDQEBdMTM0KUMoW0NIM10pKFtDSDNdKVtDQEBdKFtPSF0pKFtDSDJdW0NAQEhdNE8zKUMoPU8pYzVbY0hdW2NIXVtjSF1bY0hdW2NIXTU=

>  <s_epik_cmdline>  (8) 
J2VwaWtfcHl0aG9uJywgJy1waHQnLCAnMi4wJywgJy1waCcsICc3LjAnLCAnLXRuJywgJzgnLCAnLW1hJywgJzIwMCcsICctaW1hZScsICc8aW5maWxlLm1hZT4nLCAnLW9tYWUnLCAnPG91dGZpbGUubWFlPic=

>  <r_lp_tautomer_probability>  (8) 
1

>  <r_epik_Ionization_Penalty>  (8) 
6.43858e-07

>  <r_epik_Ionization_Penalty_Charging>  (8) 
0

>  <r_epik_Ionization_Penalty_Neutral>  (8) 
6.43858e-07

>  <r_epik_State_Penalty>  (8) 
-0

>  <r_epik_Charging_Adjusted_Penalty>  (8) 
0

>  <i_epik_Tot_Q>  (8) 
0

>  <i_epik_Tot_abs_Q>  (8) 
0

>  <s_lp_Force_Field>  (8) 
OPLS3e

>  <r_lp_Energy>  (8) 
85.8441

>  <b_lp_Chiralities_Consistent>  (8) 
1

>  <s_lp_Variant>  (8) 
4:0-1

>  <s_i_glide_gridfile>  (8) 
pfpi4k_grid

>  <i_i_glide_lignum>  (8) 
7

>  <i_i_glide_rotatable_bonds>  (8) 
6

>  <r_i_docking_score>  (8) 
-3.10387

>  <r_i_glide_ligand_efficiency>  (8) 
-0.103462

>  <r_i_glide_ligand_efficiency_sa>  (8) 
-0.321481

>  <r_i_glide_ligand_efficiency_ln>  (8) 
-0.705233

>  <r_i_glide_gscore>  (8) 
-3.10387

>  <r_i_glide_lipo>  (8) 
-0.256337

>  <r_i_glide_hbond>  (8) 
0

>  <r_i_glide_metal>  (8) 
-0

>  <r_i_glide_rewards>  (8) 
-1.11975

>  <r_i_glide_evdw>  (8) 
-26.5615

>  <r_i_glide_ecoul>  (8) 
-4.19658

>  <r_i_glide_erotb>  (8) 
0.229775

>  <r_i_glide_esite>  (8) 
0

>  <r_i_glide_emodel>  (8) 
-39.0892

>  <r_i_glide_energy>  (8) 
-30.7581

>  <r_i_glide_einternal>  (8) 
3.75277

>  <r_i_glide_intrahb_reward>  (8) 
-0.5

>  <i_i_glide_confnum>  (8) 
2

>  <i_i_glide_posenum>  (8) 
14

>  <r_i_glide_eff_state_penalty>  (8) 
0

>  <ligand_id>  (8) 
4

>  <original_smiles>  (8) 
CC1CC2=C3C4(OC4CC(O)(C(=O)c4ccccc4)C3(C)C)C(O)C(C)(C2O)C1O

>  <smiles>  (8) 
[H]OC1([H])C2=C3C4(OC4([H])C([H])([H])C(O[H])(C(=O)c4c([H])c([H])c([H])c([H])c4[H])C3(C([H])([H])[H])C([H])([H])[H])C([H])(O[H])C1(C([H])([H])[H])C([H])(O[H])C([H])(C([H])([H])[H])C2([H])[H]

$$$$
4:0:1
     RDKit          3D

 60 64  0  0  1  0  0  0  0  0999 V2000
    5.9355   -1.0651    1.4063 C   0  0  0  0  0  0  0  0  0  0  0  0
    5.2586   -2.4427    1.3698 C   0  0  2  0  0  0  0  0  0  0  0  0
    6.2844   -3.5465    0.9945 C   0  0  0  0  0  0  0  0  0  0  0  0
    5.5190   -4.8289    0.7454 C   0  0  0  0  0  0  0  0  0  0  0  0
    5.1332   -5.6360    1.7654 C   0  0  0  0  0  0  0  0  0  0  0  0
    3.6703   -5.8630    1.8251 C   0  0  1  0  0  0  0  0  0  0  0  0
    3.2914   -7.2063    1.3879 O   0  0  0  0  0  0  0  0  0  0  0  0
    3.1132   -6.8998    2.7889 C   0  0  1  0  0  0  0  0  0  0  0  0
    3.9889   -7.5960    3.7962 C   0  0  0  0  0  0  0  0  0  0  0  0
    5.5117   -7.5210    3.4788 C   0  0  1  0  0  0  0  0  0  0  0  0
    6.1529   -7.7681    4.7275 O   0  0  0  0  0  0  0  0  0  0  0  0
    5.9176   -8.6492    2.4816 C   0  0  0  0  0  0  0  0  0  0  0  0
    6.0024   -8.4343    1.2771 O   0  0  0  0  0  0  0  0  0  0  0  0
    6.1585   -9.9991    3.0354 C   0  0  0  0  0  0  0  0  0  0  0  0
    5.2024  -11.0240    2.8817 C   0  0  0  0  0  0  0  0  0  0  0  0
    5.4668  -12.3248    3.3707 C   0  0  0  0  0  0  0  0  0  0  0  0
    6.7127  -12.6187    3.9691 C   0  0  0  0  0  0  0  0  0  0  0  0
    7.6933  -11.6050    4.0851 C   0  0  0  0  0  0  0  0  0  0  0  0
    7.4235  -10.3056    3.6060 C   0  0  0  0  0  0  0  0  0  0  0  0
    5.9356   -6.0552    3.0228 C   0  0  0  0  0  0  0  0  0  0  0  0
    7.4716   -6.0616    2.7361 C   0  0  0  0  0  0  0  0  0  0  0  0
    5.6379   -5.0238    4.1444 C   0  0  0  0  0  0  0  0  0  0  0  0
    2.7745   -4.7291    1.3093 C   0  0  1  0  0  0  0  0  0  0  0  0
    2.3950   -3.9658    2.4411 O   0  0  0  0  0  0  0  0  0  0  0  0
    3.3768   -3.8564    0.1180 C   0  0  2  0  0  0  0  0  0  0  0  0
    2.3160   -3.6717   -0.9871 C   0  0  0  0  0  0  0  0  0  0  0  0
    4.5503   -4.6841   -0.4141 C   0  0  1  0  0  0  0  0  0  0  0  0
    5.1489   -4.1086   -1.5656 O   0  0  0  0  0  0  0  0  0  0  0  0
    3.9918   -2.4395    0.4535 C   0  0  1  0  0  0  0  0  0  0  0  0
    3.0181   -1.5636    0.9892 O   0  0  0  0  0  0  0  0  0  0  0  0
    6.2721   -0.7538    0.4179 H   0  0  0  0  0  0  0  0  0  0  0  0
    6.8049   -1.0625    2.0644 H   0  0  0  0  0  0  0  0  0  0  0  0
    5.2552   -0.2989    1.7768 H   0  0  0  0  0  0  0  0  0  0  0  0
    4.9171   -2.6528    2.3820 H   0  0  0  0  0  0  0  0  0  0  0  0
    6.8448   -3.2798    0.0977 H   0  0  0  0  0  0  0  0  0  0  0  0
    7.0148   -3.6438    1.7845 H   0  0  0  0  0  0  0  0  0  0  0  0
    2.0683   -6.7865    3.0747 H   0  0  0  0  0  0  0  0  0  0  0  0
    3.7884   -7.1268    4.7564 H   0  0  0  0  0  0  0  0  0  0  0  0
    3.6585   -8.6282    3.9077 H   0  0  0  0  0  0  0  0  0  0  0  0
    5.8814   -7.1199    5.3432 H   0  0  0  0  0  0  0  0  0  0  0  0
    4.2592  -10.8151    2.4103 H   0  0  0  0  0  0  0  0  0  0  0  0
    4.7235  -13.0918    3.2645 H   0  0  0  0  0  0  0  0  0  0  0  0
    6.9118  -13.6075    4.3365 H   0  0  0  0  0  0  0  0  0  0  0  0
    8.6474  -11.8302    4.5305 H   0  0  0  0  0  0  0  0  0  0  0  0
    8.1792   -9.5416    3.6743 H   0  0  0  0  0  0  0  0  0  0  0  0
    8.0057   -6.7477    3.3915 H   0  0  0  0  0  0  0  0  0  0  0  0
    7.9568   -5.1013    2.8800 H   0  0  0  0  0  0  0  0  0  0  0  0
    7.6881   -6.3863    1.7111 H   0  0  0  0  0  0  0  0  0  0  0  0
    6.1224   -5.2725    5.0854 H   0  0  0  0  0  0  0  0  0  0  0  0
    4.5652   -4.9160    4.3338 H   0  0  0  0  0  0  0  0  0  0  0  0
    5.9870   -4.0309    3.8677 H   0  0  0  0  0  0  0  0  0  0  0  0
    1.8542   -5.1946    0.9570 H   0  0  0  0  0  0  0  0  0  0  0  0
    3.1550   -3.5194    2.7609 H   0  0  0  0  0  0  0  0  0  0  0  0
    2.6957   -3.1126   -1.8444 H   0  0  0  0  0  0  0  0  0  0  0  0
    1.4687   -3.1185   -0.6117 H   0  0  0  0  0  0  0  0  0  0  0  0
    1.9285   -4.6134   -1.3592 H   0  0  0  0  0  0  0  0  0  0  0  0
    4.2160   -5.6837   -0.7076 H   0  0  0  0  0  0  0  0  0  0  0  0
    4.7155   -4.4709   -2.3168 H   0  0  0  0  0  0  0  0  0  0  0  0
    4.2883   -1.9761   -0.4864 H   0  0  0  0  0  0  0  0  0  0  0  0
    2.3428   -1.4131    0.3379 H   0  0  0  0  0  0  0  0  0  0  0  0
  1  2  1  0
  1 31  1  0
  1 32  1  0
  1 33  1  0
  2 29  1  0
  2  3  1  0
  2 34  1  1
  3  4  1  0
  3 35  1  0
  3 36  1  0
  4 27  1  0
  4  5  2  0
  5 20  1  0
  5  6  1  0
  6  8  1  0
  6  7  1  6
  6 23  1  0
  7  8  1  0
  8  9  1  0
  8 37  1  1
  9 10  1  0
  9 38  1  0
  9 39  1  0
 10 11  1  1
 10 12  1  0
 10 20  1  0
 11 40  1  0
 12 13  2  0
 12 14  1  0
 14 19  1  0
 14 15  2  0
 15 16  1  0
 15 41  1  0
 16 17  2  0
 16 42  1  0
 17 18  1  0
 17 43  1  0
 18 19  2  0
 18 44  1  0
 19 45  1  0
 20 21  1  0
 20 22  1  0
 21 46  1  0
 21 47  1  0
 21 48  1  0
 22 49  1  0
 22 50  1  0
 22 51  1  0
 23 24  1  0
 23 25  1  0
 23 52  1  6
 24 53  1  0
 25 26  1  6
 25 27  1  0
 25 29  1  0
 26 54  1  0
 26 55  1  0
 26 56  1  0
 27 28  1  0
 27 57  1  6
 28 58  1  0
 29 30  1  0
 29 59  1  6
 30 60  1  0
M  END
>  <i_m_ct_stereo_status>  (9) 
1

>  <s_m_source_file>  (9) 
/var/tmp/pbs.5076255.sched01/tmp6mkrr40i/0ze8ciewu.sdf

>  <i_m_source_file_index>  (9) 
7

>  <i_lp_mmshare_version>  (9) 
48012

>  <i_f3d_flags>  (9) 
0

>  <s_epik_input>  (9) 
W09IXVtDQEhdMVtDQF0oW0NIM10pKFtDQEhdMltPSF0pW0NAQEhdKFtPSF0pW0NASF0oW0NIM10pW0NIMl1DMj1DKFtDQEBdMTM0KUMoW0NIM10pKFtDSDNdKVtDQEBdKFtPSF0pKFtDSDJdW0NAQEhdNE8zKUMoPU8pYzVbY0hdW2NIXVtjSF1bY0hdW2NIXTU=

>  <s_epik_cmdline>  (9) 
J2VwaWtfcHl0aG9uJywgJy1waHQnLCAnMi4wJywgJy1waCcsICc3LjAnLCAnLXRuJywgJzgnLCAnLW1hJywgJzIwMCcsICctaW1hZScsICc8aW5maWxlLm1hZT4nLCAnLW9tYWUnLCAnPG91dGZpbGUubWFlPic=

>  <r_lp_tautomer_probability>  (9) 
1

>  <r_epik_Ionization_Penalty>  (9) 
6.43858e-07

>  <r_epik_Ionization_Penalty_Charging>  (9) 
0

>  <r_epik_Ionization_Penalty_Neutral>  (9) 
6.43858e-07

>  <r_epik_State_Penalty>  (9) 
-0

>  <r_epik_Charging_Adjusted_Penalty>  (9) 
0

>  <i_epik_Tot_Q>  (9) 
0

>  <i_epik_Tot_abs_Q>  (9) 
0

>  <s_lp_Force_Field>  (9) 
OPLS3e

>  <r_lp_Energy>  (9) 
85.8441

>  <b_lp_Chiralities_Consistent>  (9) 
1

>  <s_lp_Variant>  (9) 
4:0-1

>  <s_i_glide_gridfile>  (9) 
pfpi4k_grid

>  <i_i_glide_lignum>  (9) 
7

>  <i_i_glide_rotatable_bonds>  (9) 
6

>  <r_i_docking_score>  (9) 
-2.69244

>  <r_i_glide_ligand_efficiency>  (9) 
-0.089748

>  <r_i_glide_ligand_efficiency_sa>  (9) 
-0.278868

>  <r_i_glide_ligand_efficiency_ln>  (9) 
-0.611752

>  <r_i_glide_gscore>  (9) 
-2.69244

>  <r_i_glide_lipo>  (9) 
-0.441729

>  <r_i_glide_hbond>  (9) 
-0.0150837

>  <r_i_glide_metal>  (9) 
-0

>  <r_i_glide_rewards>  (9) 
-0.592554

>  <r_i_glide_evdw>  (9) 
-24.5511

>  <r_i_glide_ecoul>  (9) 
-4.30197

>  <r_i_glide_erotb>  (9) 
0.229775

>  <r_i_glide_esite>  (9) 
0

>  <r_i_glide_emodel>  (9) 
-31.8013

>  <r_i_glide_energy>  (9) 
-28.853

>  <r_i_glide_einternal>  (9) 
4.72809

>  <r_i_glide_intrahb_reward>  (9) 
-0

>  <i_i_glide_confnum>  (9) 
2

>  <i_i_glide_posenum>  (9) 
10

>  <r_i_glide_eff_state_penalty>  (9) 
0

>  <ligand_id>  (9) 
4

>  <original_smiles>  (9) 
CC1CC2=C3C4(OC4CC(O)(C(=O)c4ccccc4)C3(C)C)C(O)C(C)(C2O)C1O

>  <smiles>  (9) 
[H]OC1([H])C2=C3C4(OC4([H])C([H])([H])C(O[H])(C(=O)c4c([H])c([H])c([H])c([H])c4[H])C3(C([H])([H])[H])C([H])([H])[H])C([H])(O[H])C1(C([H])([H])[H])C([H])(O[H])C([H])(C([H])([H])[H])C2([H])[H]

$$$$
4:0:2
     RDKit          3D

 60 64  0  0  1  0  0  0  0  0999 V2000
   -1.0884    1.9672    8.1584 C   0  0  0  0  0  0  0  0  0  0  0  0
   -0.4592    1.9540    6.7539 C   0  0  2  0  0  0  0  0  0  0  0  0
    1.0662    1.6713    6.8463 C   0  0  0  0  0  0  0  0  0  0  0  0
    1.6752    1.9043    5.4674 C   0  0  0  0  0  0  0  0  0  0  0  0
    1.6220    0.9579    4.5194 C   0  0  0  0  0  0  0  0  0  0  0  0
    0.9498    1.3845    3.2532 C   0  0  1  0  0  0  0  0  0  0  0  0
    1.8932    1.6262    2.1948 O   0  0  0  0  0  0  0  0  0  0  0  0
    1.0022    0.5227    2.0464 C   0  0  1  0  0  0  0  0  0  0  0  0
    1.5786   -0.8829    2.0902 C   0  0  0  0  0  0  0  0  0  0  0  0
    2.5050   -1.1343    3.3051 C   0  0  1  0  0  0  0  0  0  0  0  0
    2.5315   -2.5510    3.4165 O   0  0  0  0  0  0  0  0  0  0  0  0
    3.9555   -0.6488    3.0136 C   0  0  0  0  0  0  0  0  0  0  0  0
    4.4495    0.3215    3.5935 O   0  0  0  0  0  0  0  0  0  0  0  0
    4.7060   -1.3606    1.9558 C   0  0  0  0  0  0  0  0  0  0  0  0
    4.8898   -0.7714    0.6778 C   0  0  0  0  0  0  0  0  0  0  0  0
    5.6543   -1.4350   -0.3052 C   0  0  0  0  0  0  0  0  0  0  0  0
    6.2946   -2.6561   -0.0051 C   0  0  0  0  0  0  0  0  0  0  0  0
    6.1593   -3.2223    1.2775 C   0  0  0  0  0  0  0  0  0  0  0  0
    5.3849   -2.5591    2.2598 C   0  0  0  0  0  0  0  0  0  0  0  0
    1.8621   -0.5689    4.6488 C   0  0  0  0  0  0  0  0  0  0  0  0
    2.8249   -0.8981    5.8406 C   0  0  0  0  0  0  0  0  0  0  0  0
    0.4960   -1.2472    4.9527 C   0  0  0  0  0  0  0  0  0  0  0  0
   -0.1754    2.4412    3.4368 C   0  0  1  0  0  0  0  0  0  0  0  0
   -1.3994    1.7564    3.5516 O   0  0  0  0  0  0  0  0  0  0  0  0
    0.0329    3.4800    4.6149 C   0  0  2  0  0  0  0  0  0  0  0  0
   -0.2395    4.9074    4.0902 C   0  0  0  0  0  0  0  0  0  0  0  0
    1.5068    3.3500    5.0227 C   0  0  1  0  0  0  0  0  0  0  0  0
    1.9080    4.2670    6.0246 O   0  0  0  0  0  0  0  0  0  0  0  0
   -0.8015    3.2486    5.9452 C   0  0  1  0  0  0  0  0  0  0  0  0
   -2.1982    3.3196    5.7133 O   0  0  0  0  0  0  0  0  0  0  0  0
   -0.7207    2.8037    8.7536 H   0  0  0  0  0  0  0  0  0  0  0  0
   -0.8610    1.0545    8.7080 H   0  0  0  0  0  0  0  0  0  0  0  0
   -2.1728    2.0586    8.1092 H   0  0  0  0  0  0  0  0  0  0  0  0
   -0.9018    1.1163    6.2183 H   0  0  0  0  0  0  0  0  0  0  0  0
    1.5510    2.3281    7.5703 H   0  0  0  0  0  0  0  0  0  0  0  0
    1.2230    0.6673    7.2127 H   0  0  0  0  0  0  0  0  0  0  0  0
    0.2228    0.6691    1.2950 H   0  0  0  0  0  0  0  0  0  0  0  0
    0.7327   -1.5657    2.1146 H   0  0  0  0  0  0  0  0  0  0  0  0
    2.0842   -1.0835    1.1516 H   0  0  0  0  0  0  0  0  0  0  0  0
    2.8382   -2.9005    2.5909 H   0  0  0  0  0  0  0  0  0  0  0  0
    4.4164    0.1714    0.4534 H   0  0  0  0  0  0  0  0  0  0  0  0
    5.7532   -0.9947   -1.2870 H   0  0  0  0  0  0  0  0  0  0  0  0
    6.8846   -3.1619   -0.7615 H   0  0  0  0  0  0  0  0  0  0  0  0
    6.6594   -4.1530    1.5132 H   0  0  0  0  0  0  0  0  0  0  0  0
    5.3078   -2.9958    3.2503 H   0  0  0  0  0  0  0  0  0  0  0  0
    3.3635   -1.8342    5.6821 H   0  0  0  0  0  0  0  0  0  0  0  0
    2.3288   -1.0152    6.8016 H   0  0  0  0  0  0  0  0  0  0  0  0
    3.5901   -0.1253    5.9672 H   0  0  0  0  0  0  0  0  0  0  0  0
    0.5704   -2.3336    4.9883 H   0  0  0  0  0  0  0  0  0  0  0  0
   -0.2584   -0.9948    4.2049 H   0  0  0  0  0  0  0  0  0  0  0  0
    0.1006   -0.9316    5.9191 H   0  0  0  0  0  0  0  0  0  0  0  0
   -0.2314    2.9763    2.4819 H   0  0  0  0  0  0  0  0  0  0  0  0
   -1.2993    1.0773    4.2056 H   0  0  0  0  0  0  0  0  0  0  0  0
   -0.1098    5.6604    4.8685 H   0  0  0  0  0  0  0  0  0  0  0  0
   -1.2579    4.9891    3.7139 H   0  0  0  0  0  0  0  0  0  0  0  0
    0.4315    5.1672    3.2695 H   0  0  0  0  0  0  0  0  0  0  0  0
    2.1571    3.5301    4.1606 H   0  0  0  0  0  0  0  0  0  0  0  0
    2.0284    5.1196    5.6280 H   0  0  0  0  0  0  0  0  0  0  0  0
   -0.5916    4.0872    6.6093 H   0  0  0  0  0  0  0  0  0  0  0  0
   -2.4158    2.6941    5.0279 H   0  0  0  0  0  0  0  0  0  0  0  0
  1  2  1  0
  1 31  1  0
  1 32  1  0
  1 33  1  0
  2 29  1  0
  2  3  1  0
  2 34  1  6
  3  4  1  0
  3 35  1  0
  3 36  1  0
  4 27  1  0
  4  5  2  0
  5 20  1  0
  5  6  1  0
  6  8  1  0
  6  7  1  6
  6 23  1  0
  7  8  1  0
  8  9  1  0
  8 37  1  6
  9 10  1  0
  9 38  1  0
  9 39  1  0
 10 11  1  1
 10 12  1  0
 10 20  1  0
 11 40  1  0
 12 13  2  0
 12 14  1  0
 14 19  1  0
 14 15  2  0
 15 16  1  0
 15 41  1  0
 16 17  2  0
 16 42  1  0
 17 18  1  0
 17 43  1  0
 18 19  2  0
 18 44  1  0
 19 45  1  0
 20 21  1  0
 20 22  1  0
 21 46  1  0
 21 47  1  0
 21 48  1  0
 22 49  1  0
 22 50  1  0
 22 51  1  0
 23 24  1  0
 23 25  1  0
 23 52  1  6
 24 53  1  0
 25 26  1  6
 25 27  1  0
 25 29  1  0
 26 54  1  0
 26 55  1  0
 26 56  1  0
 27 28  1  0
 27 57  1  6
 28 58  1  0
 29 30  1  0
 29 59  1  1
 30 60  1  0
M  END
>  <i_m_ct_stereo_status>  (10) 
1

>  <s_m_source_file>  (10) 
/var/tmp/pbs.5076255.sched01/tmp6mkrr40i/0ze8ciewu.sdf

>  <i_m_source_file_index>  (10) 
7

>  <i_lp_mmshare_version>  (10) 
48012

>  <i_f3d_flags>  (10) 
0

>  <s_epik_input>  (10) 
W09IXVtDQEhdMVtDQF0oW0NIM10pKFtDQEhdMltPSF0pW0NAQEhdKFtPSF0pW0NASF0oW0NIM10pW0NIMl1DMj1DKFtDQEBdMTM0KUMoW0NIM10pKFtDSDNdKVtDQEBdKFtPSF0pKFtDSDJdW0NAQEhdNE8zKUMoPU8pYzVbY0hdW2NIXVtjSF1bY0hdW2NIXTU=

>  <s_epik_cmdline>  (10) 
J2VwaWtfcHl0aG9uJywgJy1waHQnLCAnMi4wJywgJy1waCcsICc3LjAnLCAnLXRuJywgJzgnLCAnLW1hJywgJzIwMCcsICctaW1hZScsICc8aW5maWxlLm1hZT4nLCAnLW9tYWUnLCAnPG91dGZpbGUubWFlPic=

>  <r_lp_tautomer_probability>  (10) 
1

>  <r_epik_Ionization_Penalty>  (10) 
6.43858e-07

>  <r_epik_Ionization_Penalty_Charging>  (10) 
0

>  <r_epik_Ionization_Penalty_Neutral>  (10) 
6.43858e-07

>  <r_epik_State_Penalty>  (10) 
-0

>  <r_epik_Charging_Adjusted_Penalty>  (10) 
0

>  <i_epik_Tot_Q>  (10) 
0

>  <i_epik_Tot_abs_Q>  (10) 
0

>  <s_lp_Force_Field>  (10) 
OPLS3e

>  <r_lp_Energy>  (10) 
85.8441

>  <b_lp_Chiralities_Consistent>  (10) 
1

>  <s_lp_Variant>  (10) 
4:0-1

>  <s_i_glide_gridfile>  (10) 
pfpi4k_grid

>  <i_i_glide_lignum>  (10) 
7

>  <i_i_glide_rotatable_bonds>  (10) 
6

>  <r_i_docking_score>  (10) 
-2.40913

>  <r_i_glide_ligand_efficiency>  (10) 
-0.0803044

>  <r_i_glide_ligand_efficiency_sa>  (10) 
-0.249524

>  <r_i_glide_ligand_efficiency_ln>  (10) 
-0.547381

>  <r_i_glide_gscore>  (10) 
-2.40913

>  <r_i_glide_lipo>  (10) 
-0.344631

>  <r_i_glide_hbond>  (10) 
0

>  <r_i_glide_metal>  (10) 
-0

>  <r_i_glide_rewards>  (10) 
-0.614622

>  <r_i_glide_evdw>  (10) 
-28.2849

>  <r_i_glide_ecoul>  (10) 
-1.76938

>  <r_i_glide_erotb>  (10) 
0.229775

>  <r_i_glide_esite>  (10) 
0

>  <r_i_glide_emodel>  (10) 
-31.5756

>  <r_i_glide_energy>  (10) 
-30.0543

>  <r_i_glide_einternal>  (10) 
6.29636

>  <r_i_glide_intrahb_reward>  (10) 
-0

>  <i_i_glide_confnum>  (10) 
2

>  <i_i_glide_posenum>  (10) 
6

>  <r_i_glide_eff_state_penalty>  (10) 
0

>  <ligand_id>  (10) 
4

>  <original_smiles>  (10) 
CC1CC2=C3C4(OC4CC(O)(C(=O)c4ccccc4)C3(C)C)C(O)C(C)(C2O)C1O

>  <smiles>  (10) 
[H]OC1([H])C2=C3C4(OC4([H])C([H])([H])C(O[H])(C(=O)c4c([H])c([H])c([H])c([H])c4[H])C3(C([H])([H])[H])C([H])([H])[H])C([H])(O[H])C1(C([H])([H])[H])C([H])(O[H])C([H])(C([H])([H])[H])C2([H])[H]

$$$$
5:0:0
     RDKit          3D

 34 34  0  0  1  0  0  0  0  0999 V2000
    2.4836    4.6306    2.6054 C   0  0  0  0  0  0  0  0  0  0  0  0
    2.6043    3.7220    3.6890 O   0  0  0  0  0  0  0  0  0  0  0  0
    1.4376    2.9458    3.9611 C   0  0  0  0  0  0  0  0  0  0  0  0
    1.0985    1.9333    2.8496 C   0  0  0  0  0  0  0  0  0  0  0  0
    2.1943    1.0574    2.7075 O   0  0  0  0  0  0  0  0  0  0  0  0
    2.0080    0.1149    1.6691 C   0  0  0  0  0  0  0  0  0  0  0  0
    3.3602   -0.5096    1.3056 C   0  0  0  0  0  0  0  0  0  0  0  0
    4.2880   -0.4666    2.1041 O   0  0  0  0  0  0  0  0  0  0  0  0
    3.4010   -1.0771    0.0784 N   0  0  0  0  0  0  0  0  0  0  0  0
    4.4955   -1.7228   -0.5928 C   0  0  0  0  0  0  0  0  0  0  0  0
    5.8128   -1.7748   -0.0733 C   0  0  0  0  0  0  0  0  0  0  0  0
    6.8323   -2.4438   -0.7689 C   0  0  0  0  0  0  0  0  0  0  0  0
    6.5503   -3.0523   -2.0006 C   0  0  0  0  0  0  0  0  0  0  0  0
    5.2510   -3.0070   -2.5361 C   0  0  0  0  0  0  0  0  0  0  0  0
    4.2093   -2.3386   -1.8415 C   0  0  0  0  0  0  0  0  0  0  0  0
    2.9137   -2.2494   -2.3184 O   0  0  0  0  0  0  0  0  0  0  0  0
    2.6068   -2.8100   -3.5873 C   0  0  0  0  0  0  0  0  0  0  0  0
    3.4138    5.1842    2.4888 H   0  0  0  0  0  0  0  0  0  0  0  0
    1.6699    5.3349    2.7712 H   0  0  0  0  0  0  0  0  0  0  0  0
    2.3080    4.1207    1.6648 H   0  0  0  0  0  0  0  0  0  0  0  0
    1.6105    2.4095    4.8988 H   0  0  0  0  0  0  0  0  0  0  0  0
    0.5919    3.6099    4.1507 H   0  0  0  0  0  0  0  0  0  0  0  0
    0.2066    1.3660    3.1078 H   0  0  0  0  0  0  0  0  0  0  0  0
    0.8873    2.4204    1.9004 H   0  0  0  0  0  0  0  0  0  0  0  0
    1.3125   -0.6586    1.9893 H   0  0  0  0  0  0  0  0  0  0  0  0
    1.5911    0.5948    0.7866 H   0  0  0  0  0  0  0  0  0  0  0  0
    2.5205   -1.0578   -0.4138 H   0  0  0  0  0  0  0  0  0  0  0  0
    6.0869   -1.3174    0.8638 H   0  0  0  0  0  0  0  0  0  0  0  0
    7.8262   -2.4953   -0.3486 H   0  0  0  0  0  0  0  0  0  0  0  0
    7.3370   -3.5646   -2.5386 H   0  0  0  0  0  0  0  0  0  0  0  0
    5.0703   -3.5049   -3.4780 H   0  0  0  0  0  0  0  0  0  0  0  0
    1.5507   -2.6555   -3.8152 H   0  0  0  0  0  0  0  0  0  0  0  0
    2.7839   -3.8829   -3.6035 H   0  0  0  0  0  0  0  0  0  0  0  0
    3.1880   -2.3373   -4.3785 H   0  0  0  0  0  0  0  0  0  0  0  0
  1  2  1  0
  1 18  1  0
  1 19  1  0
  1 20  1  0
  2  3  1  0
  3  4  1  0
  3 21  1  0
  3 22  1  0
  4  5  1  0
  4 23  1  0
  4 24  1  0
  5  6  1  0
  6  7  1  0
  6 25  1  0
  6 26  1  0
  7  8  2  0
  7  9  1  0
  9 10  1  0
  9 27  1  0
 10 15  2  0
 10 11  1  0
 11 12  2  0
 11 28  1  0
 12 13  1  0
 12 29  1  0
 13 14  2  0
 13 30  1  0
 14 15  1  0
 14 31  1  0
 15 16  1  0
 16 17  1  0
 17 32  1  0
 17 33  1  0
 17 34  1  0
M  END
>  <i_m_ct_stereo_status>  (11) 
1

>  <s_m_source_file>  (11) 
/var/tmp/pbs.5076255.sched01/tmp6mkrr40i/0ze8ciewu.sdf

>  <i_m_source_file_index>  (11) 
8

>  <i_lp_mmshare_version>  (11) 
48012

>  <i_f3d_flags>  (11) 
0

>  <s_epik_input>  (11) 
W0NIM11PW0NIMl1bQ0gyXU9bQ0gyXUMoPU8pW05IXWMxW2NIXVtjSF1bY0hdW2NIXWMxT1tDSDNd

>  <s_epik_cmdline>  (11) 
J2VwaWtfcHl0aG9uJywgJy1waHQnLCAnMi4wJywgJy1waCcsICc3LjAnLCAnLXRuJywgJzgnLCAnLW1hJywgJzIwMCcsICctaW1hZScsICc8aW5maWxlLm1hZT4nLCAnLW9tYWUnLCAnPG91dGZpbGUubWFlPic=

>  <r_lp_tautomer_probability>  (11) 
1

>  <r_epik_Ionization_Penalty>  (11) 
6.72439e-07

>  <r_epik_Ionization_Penalty_Charging>  (11) 
0

>  <r_epik_Ionization_Penalty_Neutral>  (11) 
6.72439e-07

>  <r_epik_State_Penalty>  (11) 
-0

>  <r_epik_Charging_Adjusted_Penalty>  (11) 
0

>  <i_epik_Tot_Q>  (11) 
0

>  <i_epik_Tot_abs_Q>  (11) 
0

>  <s_lp_Force_Field>  (11) 
OPLS3e

>  <r_lp_Energy>  (11) 
27.5026

>  <b_lp_Chiralities_Consistent>  (11) 
1

>  <s_lp_Variant>  (11) 
5:0-1

>  <s_i_glide_gridfile>  (11) 
pfpi4k_grid

>  <i_i_glide_lignum>  (11) 
8

>  <i_i_glide_rotatable_bonds>  (11) 
8

>  <r_i_docking_score>  (11) 
-0.767081

>  <r_i_glide_ligand_efficiency>  (11) 
-0.0451224

>  <r_i_glide_ligand_efficiency_sa>  (11) 
-0.116022

>  <r_i_glide_ligand_efficiency_ln>  (11) 
-0.200114

>  <r_i_glide_gscore>  (11) 
-0.767081

>  <r_i_glide_lipo>  (11) 
-0.473358

>  <r_i_glide_hbond>  (11) 
-0.16

>  <r_i_glide_metal>  (11) 
-0

>  <r_i_glide_rewards>  (11) 
-1.77772

>  <r_i_glide_evdw>  (11) 
-24.8102

>  <r_i_glide_ecoul>  (11) 
-4.23507

>  <r_i_glide_erotb>  (11) 
3.62177

>  <r_i_glide_esite>  (11) 
-0.102001

>  <r_i_glide_emodel>  (11) 
-29.5041

>  <r_i_glide_energy>  (11) 
-29.0453

>  <r_i_glide_einternal>  (11) 
1.93102

>  <r_i_glide_intrahb_reward>  (11) 
-0

>  <i_i_glide_confnum>  (11) 
3

>  <i_i_glide_posenum>  (11) 
20

>  <r_i_glide_eff_state_penalty>  (11) 
0

>  <ligand_id>  (11) 
5

>  <original_smiles>  (11) 
COCCOCC(=O)Nc1ccccc1OC

>  <smiles>  (11) 
[H]c1c([H])c([H])c(N([H])C(=O)C([H])([H])OC([H])([H])C([H])([H])OC([H])([H])[H])c(OC([H])([H])[H])c1[H]

$$$$
5:0:1
     RDKit          3D

 34 34  0  0  1  0  0  0  0  0999 V2000
   -2.1774   -8.1325    3.3264 C   0  0  0  0  0  0  0  0  0  0  0  0
   -0.9952   -7.3797    3.1211 O   0  0  0  0  0  0  0  0  0  0  0  0
    0.0873   -8.1938    2.6968 C   0  0  0  0  0  0  0  0  0  0  0  0
    1.3602   -7.3447    2.6551 C   0  0  0  0  0  0  0  0  0  0  0  0
    1.2898   -6.4603    1.5515 O   0  0  0  0  0  0  0  0  0  0  0  0
    2.4865   -5.7138    1.3687 C   0  0  0  0  0  0  0  0  0  0  0  0
    2.3682   -4.8812    0.0953 C   0  0  0  0  0  0  0  0  0  0  0  0
    1.4160   -5.0742   -0.6645 O   0  0  0  0  0  0  0  0  0  0  0  0
    3.3106   -3.9394   -0.0819 N   0  0  0  0  0  0  0  0  0  0  0  0
    3.4632   -2.9875   -1.1374 C   0  0  0  0  0  0  0  0  0  0  0  0
    2.7647   -3.0566   -2.3709 C   0  0  0  0  0  0  0  0  0  0  0  0
    2.9723   -2.0895   -3.3692 C   0  0  0  0  0  0  0  0  0  0  0  0
    3.8752   -1.0397   -3.1492 C   0  0  0  0  0  0  0  0  0  0  0  0
    4.5845   -0.9708   -1.9368 C   0  0  0  0  0  0  0  0  0  0  0  0
    4.3841   -1.9362   -0.9176 C   0  0  0  0  0  0  0  0  0  0  0  0
    5.0495   -1.9127    0.2979 O   0  0  0  0  0  0  0  0  0  0  0  0
    5.8087   -0.7600    0.6388 C   0  0  0  0  0  0  0  0  0  0  0  0
   -2.9708   -7.4624    3.6523 H   0  0  0  0  0  0  0  0  0  0  0  0
   -2.0387   -8.8855    4.1027 H   0  0  0  0  0  0  0  0  0  0  0  0
   -2.4958   -8.6343    2.4109 H   0  0  0  0  0  0  0  0  0  0  0  0
    0.2325   -9.0115    3.4027 H   0  0  0  0  0  0  0  0  0  0  0  0
   -0.1129   -8.6450    1.7225 H   0  0  0  0  0  0  0  0  0  0  0  0
    1.5024   -6.7997    3.5910 H   0  0  0  0  0  0  0  0  0  0  0  0
    2.2215   -7.9987    2.5290 H   0  0  0  0  0  0  0  0  0  0  0  0
    2.6508   -5.0576    2.2270 H   0  0  0  0  0  0  0  0  0  0  0  0
    3.3528   -6.3717    1.2734 H   0  0  0  0  0  0  0  0  0  0  0  0
    3.9859   -3.8491    0.6636 H   0  0  0  0  0  0  0  0  0  0  0  0
    2.0608   -3.8429   -2.5866 H   0  0  0  0  0  0  0  0  0  0  0  0
    2.4090   -2.1533   -4.2946 H   0  0  0  0  0  0  0  0  0  0  0  0
    4.0160   -0.2790   -3.9059 H   0  0  0  0  0  0  0  0  0  0  0  0
    5.2735   -0.1558   -1.8048 H   0  0  0  0  0  0  0  0  0  0  0  0
    6.2805   -0.9016    1.6120 H   0  0  0  0  0  0  0  0  0  0  0  0
    5.1738    0.1264    0.6987 H   0  0  0  0  0  0  0  0  0  0  0  0
    6.6139   -0.5771   -0.0717 H   0  0  0  0  0  0  0  0  0  0  0  0
  1  2  1  0
  1 18  1  0
  1 19  1  0
  1 20  1  0
  2  3  1  0
  3  4  1  0
  3 21  1  0
  3 22  1  0
  4  5  1  0
  4 23  1  0
  4 24  1  0
  5  6  1  0
  6  7  1  0
  6 25  1  0
  6 26  1  0
  7  8  2  0
  7  9  1  0
  9 10  1  0
  9 27  1  0
 10 15  2  0
 10 11  1  0
 11 12  2  0
 11 28  1  0
 12 13  1  0
 12 29  1  0
 13 14  2  0
 13 30  1  0
 14 15  1  0
 14 31  1  0
 15 16  1  0
 16 17  1  0
 17 32  1  0
 17 33  1  0
 17 34  1  0
M  END
>  <i_m_ct_stereo_status>  (12) 
1

>  <s_m_source_file>  (12) 
/var/tmp/pbs.5076255.sched01/tmp6mkrr40i/0ze8ciewu.sdf

>  <i_m_source_file_index>  (12) 
8

>  <i_lp_mmshare_version>  (12) 
48012

>  <i_f3d_flags>  (12) 
0

>  <s_epik_input>  (12) 
W0NIM11PW0NIMl1bQ0gyXU9bQ0gyXUMoPU8pW05IXWMxW2NIXVtjSF1bY0hdW2NIXWMxT1tDSDNd

>  <s_epik_cmdline>  (12) 
J2VwaWtfcHl0aG9uJywgJy1waHQnLCAnMi4wJywgJy1waCcsICc3LjAnLCAnLXRuJywgJzgnLCAnLW1hJywgJzIwMCcsICctaW1hZScsICc8aW5maWxlLm1hZT4nLCAnLW9tYWUnLCAnPG91dGZpbGUubWFlPic=

>  <r_lp_tautomer_probability>  (12) 
1

>  <r_epik_Ionization_Penalty>  (12) 
6.72439e-07

>  <r_epik_Ionization_Penalty_Charging>  (12) 
0

>  <r_epik_Ionization_Penalty_Neutral>  (12) 
6.72439e-07

>  <r_epik_State_Penalty>  (12) 
-0

>  <r_epik_Charging_Adjusted_Penalty>  (12) 
0

>  <i_epik_Tot_Q>  (12) 
0

>  <i_epik_Tot_abs_Q>  (12) 
0

>  <s_lp_Force_Field>  (12) 
OPLS3e

>  <r_lp_Energy>  (12) 
27.5026

>  <b_lp_Chiralities_Consistent>  (12) 
1

>  <s_lp_Variant>  (12) 
5:0-1

>  <s_i_glide_gridfile>  (12) 
pfpi4k_grid

>  <i_i_glide_lignum>  (12) 
8

>  <i_i_glide_rotatable_bonds>  (12) 
8

>  <r_i_docking_score>  (12) 
-0.521274

>  <r_i_glide_ligand_efficiency>  (12) 
-0.0306632

>  <r_i_glide_ligand_efficiency_sa>  (12) 
-0.0788437

>  <r_i_glide_ligand_efficiency_ln>  (12) 
-0.135989

>  <r_i_glide_gscore>  (12) 
-0.521274

>  <r_i_glide_lipo>  (12) 
-0.358982

>  <r_i_glide_hbond>  (12) 
-0.193109

>  <r_i_glide_metal>  (12) 
-0

>  <r_i_glide_rewards>  (12) 
-1.77772

>  <r_i_glide_evdw>  (12) 
-22.5639

>  <r_i_glide_ecoul>  (12) 
-4.07599

>  <r_i_glide_erotb>  (12) 
3.62177

>  <r_i_glide_esite>  (12) 
-0.0736392

>  <r_i_glide_emodel>  (12) 
-27.2904

>  <r_i_glide_energy>  (12) 
-26.6399

>  <r_i_glide_einternal>  (12) 
0.496096

>  <r_i_glide_intrahb_reward>  (12) 
-0

>  <i_i_glide_confnum>  (12) 
3

>  <i_i_glide_posenum>  (12) 
23

>  <r_i_glide_eff_state_penalty>  (12) 
0

>  <ligand_id>  (12) 
5

>  <original_smiles>  (12) 
COCCOCC(=O)Nc1ccccc1OC

>  <smiles>  (12) 
[H]c1c([H])c([H])c(N([H])C(=O)C([H])([H])OC([H])([H])C([H])([H])OC([H])([H])[H])c(OC([H])([H])[H])c1[H]

$$$$
5:0:2
     RDKit          3D

 34 34  0  0  1  0  0  0  0  0999 V2000
    2.0344    4.4312    5.1311 C   0  0  0  0  0  0  0  0  0  0  0  0
    1.7300    3.2059    4.4891 O   0  0  0  0  0  0  0  0  0  0  0  0
    1.3087    3.3847    3.1452 C   0  0  0  0  0  0  0  0  0  0  0  0
    1.0541    2.0150    2.5048 C   0  0  0  0  0  0  0  0  0  0  0  0
    2.2997    1.3777    2.2830 O   0  0  0  0  0  0  0  0  0  0  0  0
    2.1985    0.2388    1.4507 C   0  0  0  0  0  0  0  0  0  0  0  0
    3.5887   -0.3709    1.2624 C   0  0  0  0  0  0  0  0  0  0  0  0
    4.4220   -0.2780    2.1630 O   0  0  0  0  0  0  0  0  0  0  0  0
    3.7924   -0.9912    0.0835 N   0  0  0  0  0  0  0  0  0  0  0  0
    4.9609   -1.6262   -0.4305 C   0  0  0  0  0  0  0  0  0  0  0  0
    6.2192   -1.5945    0.2242 C   0  0  0  0  0  0  0  0  0  0  0  0
    7.3296   -2.2604   -0.3198 C   0  0  0  0  0  0  0  0  0  0  0  0
    7.2036   -2.9573   -1.5303 C   0  0  0  0  0  0  0  0  0  0  0  0
    5.9665   -2.9836   -2.2024 C   0  0  0  0  0  0  0  0  0  0  0  0
    4.8366   -2.3159   -1.6644 C   0  0  0  0  0  0  0  0  0  0  0  0
    3.5984   -2.2919   -2.2813 O   0  0  0  0  0  0  0  0  0  0  0  0
    3.4566   -2.9119   -3.5535 C   0  0  0  0  0  0  0  0  0  0  0  0
    2.3654    4.2308    6.1498 H   0  0  0  0  0  0  0  0  0  0  0  0
    1.1610    5.0827    5.1824 H   0  0  0  0  0  0  0  0  0  0  0  0
    2.8370    4.9600    4.6155 H   0  0  0  0  0  0  0  0  0  0  0  0
    0.3853    3.9654    3.1394 H   0  0  0  0  0  0  0  0  0  0  0  0
    2.0474    3.9394    2.5634 H   0  0  0  0  0  0  0  0  0  0  0  0
    0.4109    1.3969    3.1313 H   0  0  0  0  0  0  0  0  0  0  0  0
    0.5418    2.1440    1.5509 H   0  0  0  0  0  0  0  0  0  0  0  0
    1.5338   -0.5092    1.8839 H   0  0  0  0  0  0  0  0  0  0  0  0
    1.7985    0.5447    0.4859 H   0  0  0  0  0  0  0  0  0  0  0  0
    2.9779   -1.0267   -0.5195 H   0  0  0  0  0  0  0  0  0  0  0  0
    6.3777   -1.0654    1.1490 H   0  0  0  0  0  0  0  0  0  0  0  0
    8.2791   -2.2377    0.1921 H   0  0  0  0  0  0  0  0  0  0  0  0
    8.0599   -3.4609   -1.9559 H   0  0  0  0  0  0  0  0  0  0  0  0
    5.9098   -3.5259   -3.1333 H   0  0  0  0  0  0  0  0  0  0  0  0
    2.4252   -2.8122   -3.8974 H   0  0  0  0  0  0  0  0  0  0  0  0
    3.6839   -3.9766   -3.5145 H   0  0  0  0  0  0  0  0  0  0  0  0
    4.0979   -2.4374   -4.2967 H   0  0  0  0  0  0  0  0  0  0  0  0
  1  2  1  0
  1 18  1  0
  1 19  1  0
  1 20  1  0
  2  3  1  0
  3  4  1  0
  3 21  1  0
  3 22  1  0
  4  5  1  0
  4 23  1  0
  4 24  1  0
  5  6  1  0
  6  7  1  0
  6 25  1  0
  6 26  1  0
  7  8  2  0
  7  9  1  0
  9 10  1  0
  9 27  1  0
 10 15  2  0
 10 11  1  0
 11 12  2  0
 11 28  1  0
 12 13  1  0
 12 29  1  0
 13 14  2  0
 13 30  1  0
 14 15  1  0
 14 31  1  0
 15 16  1  0
 16 17  1  0
 17 32  1  0
 17 33  1  0
 17 34  1  0
M  END
>  <i_m_ct_stereo_status>  (13) 
1

>  <s_m_source_file>  (13) 
/var/tmp/pbs.5076255.sched01/tmp6mkrr40i/0ze8ciewu.sdf

>  <i_m_source_file_index>  (13) 
8

>  <i_lp_mmshare_version>  (13) 
48012

>  <i_f3d_flags>  (13) 
0

>  <s_epik_input>  (13) 
W0NIM11PW0NIMl1bQ0gyXU9bQ0gyXUMoPU8pW05IXWMxW2NIXVtjSF1bY0hdW2NIXWMxT1tDSDNd

>  <s_epik_cmdline>  (13) 
J2VwaWtfcHl0aG9uJywgJy1waHQnLCAnMi4wJywgJy1waCcsICc3LjAnLCAnLXRuJywgJzgnLCAnLW1hJywgJzIwMCcsICctaW1hZScsICc8aW5maWxlLm1hZT4nLCAnLW9tYWUnLCAnPG91dGZpbGUubWFlPic=

>  <r_lp_tautomer_probability>  (13) 
1

>  <r_epik_Ionization_Penalty>  (13) 
6.72439e-07

>  <r_epik_Ionization_Penalty_Charging>  (13) 
0

>  <r_epik_Ionization_Penalty_Neutral>  (13) 
6.72439e-07

>  <r_epik_State_Penalty>  (13) 
-0

>  <r_epik_Charging_Adjusted_Penalty>  (13) 
0

>  <i_epik_Tot_Q>  (13) 
0

>  <i_epik_Tot_abs_Q>  (13) 
0

>  <s_lp_Force_Field>  (13) 
OPLS3e

>  <r_lp_Energy>  (13) 
27.5026

>  <b_lp_Chiralities_Consistent>  (13) 
1

>  <s_lp_Variant>  (13) 
5:0-1

>  <s_i_glide_gridfile>  (13) 
pfpi4k_grid

>  <i_i_glide_lignum>  (13) 
8

>  <i_i_glide_rotatable_bonds>  (13) 
8

>  <r_i_docking_score>  (13) 
-0.322527

>  <r_i_glide_ligand_efficiency>  (13) 
-0.0189722

>  <r_i_glide_ligand_efficiency_sa>  (13) 
-0.0487828

>  <r_i_glide_ligand_efficiency_ln>  (13) 
-0.0841401

>  <r_i_glide_gscore>  (13) 
-0.322527

>  <r_i_glide_lipo>  (13) 
-0.371163

>  <r_i_glide_hbond>  (13) 
-0.0655076

>  <r_i_glide_metal>  (13) 
-0

>  <r_i_glide_rewards>  (13) 
-1.77772

>  <r_i_glide_evdw>  (13) 
-23.8055

>  <r_i_glide_ecoul>  (13) 
-3.28778

>  <r_i_glide_erotb>  (13) 
3.62177

>  <r_i_glide_esite>  (13) 
-0.0464635

>  <r_i_glide_emodel>  (13) 
-27.3355

>  <r_i_glide_energy>  (13) 
-27.0933

>  <r_i_glide_einternal>  (13) 
0.620705

>  <r_i_glide_intrahb_reward>  (13) 
-0

>  <i_i_glide_confnum>  (13) 
3

>  <i_i_glide_posenum>  (13) 
17

>  <r_i_glide_eff_state_penalty>  (13) 
0

>  <ligand_id>  (13) 
5

>  <original_smiles>  (13) 
COCCOCC(=O)Nc1ccccc1OC

>  <smiles>  (13) 
[H]c1c([H])c([H])c(N([H])C(=O)C([H])([H])OC([H])([H])C([H])([H])OC([H])([H])[H])c(OC([H])([H])[H])c1[H]

$$$$
7:0:0
     RDKit          3D

 71 76  0  0  1  0  0  0  0  0999 V2000
    1.2779   -7.9266    1.7806 C   0  0  0  0  0  0  0  0  0  0  0  0
    2.0360   -6.9921    2.7391 C   0  0  2  0  0  0  0  0  0  0  0  0
    1.2791   -5.7157    3.0174 C   0  0  0  0  0  0  0  0  0  0  0  0
    1.8340   -4.7266    2.1714 O   0  0  0  0  0  0  0  0  0  0  0  0
    3.1861   -5.0186    1.7780 C   0  0  1  0  0  0  0  0  0  0  0  0
    3.0572   -4.8350    0.1938 C   0  0  1  0  0  0  0  0  0  0  0  0
    1.8145   -5.3087   -0.3032 O   0  0  0  0  0  0  0  0  0  0  0  0
    3.4282   -3.4447   -0.4584 C   0  0  2  0  0  0  0  0  0  0  0  0
    2.5360   -3.1159   -1.6908 C   0  0  0  0  0  0  0  0  0  0  0  0
    4.9451   -3.4441   -0.8270 C   0  0  1  0  0  0  0  0  0  0  0  0
    5.2641   -2.5564   -1.8925 O   0  0  0  0  0  0  0  0  0  0  0  0
    5.6738   -3.0587    0.4779 C   0  0  1  0  0  0  0  0  0  0  0  0
    6.6221   -2.0110    0.2917 O   0  0  0  0  0  0  0  0  0  0  0  0
    4.5610   -2.7508    1.5224 C   0  0  1  0  0  0  0  0  0  0  0  0
    5.0233   -1.6416    2.2904 O   0  0  0  0  0  0  0  0  0  0  0  0
    3.3359   -2.3820    0.6432 C   0  0  1  0  0  0  0  0  0  0  0  0
    3.4053   -1.0695    0.1192 O   0  0  0  0  0  0  0  0  0  0  0  0
    4.1389   -3.9450    2.5038 C   0  0  1  0  0  0  0  0  0  0  0  0
    3.2707   -3.1921    3.5880 C   0  0  0  0  0  0  0  0  0  0  0  0
    5.3930   -4.6396    3.2263 C   0  0  1  0  0  0  0  0  0  0  0  0
    5.1404   -5.1099    4.7041 C   0  0  1  0  0  0  0  0  0  0  0  0
    4.6025   -4.3110    5.7410 O   0  0  0  0  0  0  0  0  0  0  0  0
    4.4930   -6.4713    4.5610 C   0  0  0  0  0  0  0  0  0  0  0  0
    4.1037   -7.2664    5.5710 C   0  0  0  0  0  0  0  0  0  0  0  0
    3.7941   -8.7480    5.4101 C   0  0  1  0  0  0  0  0  0  0  0  0
    2.4870   -9.0258    5.8716 O   0  0  0  0  0  0  0  0  0  0  0  0
    3.9863   -9.2978    3.9741 C   0  0  0  0  0  0  0  0  0  0  0  0
    4.9397   -8.4565    3.0990 C   0  0  0  0  0  0  0  0  0  0  0  0
    4.6553   -6.9190    3.1141 C   0  0  1  0  0  0  0  0  0  0  0  0
    3.4053   -6.5334    2.2074 C   0  0  1  0  0  0  0  0  0  0  0  0
    5.8701   -6.0509    2.6563 C   0  0  0  0  0  0  0  0  0  0  0  0
    6.2048   -6.2482    1.1627 C   0  0  0  0  0  0  0  0  0  0  0  0
    7.2390   -6.4740    3.2960 C   0  0  0  0  0  0  0  0  0  0  0  0
    1.0182   -7.4390    0.8434 H   0  0  0  0  0  0  0  0  0  0  0  0
    0.3487   -8.2763    2.2328 H   0  0  0  0  0  0  0  0  0  0  0  0
    1.8686   -8.8099    1.5361 H   0  0  0  0  0  0  0  0  0  0  0  0
    2.1028   -7.4950    3.6958 H   0  0  0  0  0  0  0  0  0  0  0  0
    0.2111   -5.8213    2.8407 H   0  0  0  0  0  0  0  0  0  0  0  0
    1.4104   -5.4368    4.0591 H   0  0  0  0  0  0  0  0  0  0  0  0
    3.6885   -5.5620   -0.2927 H   0  0  0  0  0  0  0  0  0  0  0  0
    1.9750   -5.4901   -1.2260 H   0  0  0  0  0  0  0  0  0  0  0  0
    2.7490   -2.1425   -2.1260 H   0  0  0  0  0  0  0  0  0  0  0  0
    1.4870   -3.0865   -1.4076 H   0  0  0  0  0  0  0  0  0  0  0  0
    2.6311   -3.8541   -2.4905 H   0  0  0  0  0  0  0  0  0  0  0  0
    5.2806   -4.4114   -1.1968 H   0  0  0  0  0  0  0  0  0  0  0  0
    4.7161   -2.7773   -2.6241 H   0  0  0  0  0  0  0  0  0  0  0  0
    6.3086   -3.8442    0.8412 H   0  0  0  0  0  0  0  0  0  0  0  0
    6.9084   -1.7640    1.1564 H   0  0  0  0  0  0  0  0  0  0  0  0
    4.2835   -1.3017    2.7643 H   0  0  0  0  0  0  0  0  0  0  0  0
    2.3684   -2.4255    1.1422 H   0  0  0  0  0  0  0  0  0  0  0  0
    2.5516   -0.8958   -0.2801 H   0  0  0  0  0  0  0  0  0  0  0  0
    3.8574   -2.5197    4.2127 H   0  0  0  0  0  0  0  0  0  0  0  0
    2.7822   -3.8726    4.2742 H   0  0  0  0  0  0  0  0  0  0  0  0
    2.4582   -2.5912    3.1875 H   0  0  0  0  0  0  0  0  0  0  0  0
    6.2058   -3.9222    3.2182 H   0  0  0  0  0  0  0  0  0  0  0  0
    6.1167   -5.2780    5.1490 H   0  0  0  0  0  0  0  0  0  0  0  0
    4.7325   -4.7557    6.5600 H   0  0  0  0  0  0  0  0  0  0  0  0
    4.1058   -6.9018    6.5885 H   0  0  0  0  0  0  0  0  0  0  0  0
    4.4941   -9.2637    6.0686 H   0  0  0  0  0  0  0  0  0  0  0  0
    2.4096   -9.9534    6.0385 H   0  0  0  0  0  0  0  0  0  0  0  0
    4.3638  -10.3193    4.0402 H   0  0  0  0  0  0  0  0  0  0  0  0
    3.0286   -9.4116    3.4708 H   0  0  0  0  0  0  0  0  0  0  0  0
    5.9347   -8.6561    3.4891 H   0  0  0  0  0  0  0  0  0  0  0  0
    4.9439   -8.8444    2.0816 H   0  0  0  0  0  0  0  0  0  0  0  0
    3.5634   -7.0918    1.2858 H   0  0  0  0  0  0  0  0  0  0  0  0
    6.2872   -7.3091    0.9185 H   0  0  0  0  0  0  0  0  0  0  0  0
    7.1689   -5.8075    0.8966 H   0  0  0  0  0  0  0  0  0  0  0  0
    5.4789   -5.8488    0.4876 H   0  0  0  0  0  0  0  0  0  0  0  0
    7.7158   -7.2859    2.7427 H   0  0  0  0  0  0  0  0  0  0  0  0
    7.1868   -6.8409    4.3210 H   0  0  0  0  0  0  0  0  0  0  0  0
    7.9488   -5.6439    3.2773 H   0  0  0  0  0  0  0  0  0  0  0  0
  1  2  1  0
  1 34  1  0
  1 35  1  0
  1 36  1  0
  2 30  1  0
  2  3  1  0
  2 37  1  1
  3  4  1  0
  3 38  1  0
  3 39  1  0
  5  4  1  1
  5 18  1  0
  5 30  1  0
  5  6  1  0
  6  7  1  0
  6  8  1  0
  6 40  1  6
  7 41  1  0
  8 16  1  0
  8  9  1  6
  8 10  1  0
  9 42  1  0
  9 43  1  0
  9 44  1  0
 10 11  1  0
 10 12  1  0
 10 45  1  6
 11 46  1  0
 12 13  1  0
 12 14  1  0
 12 47  1  1
 13 48  1  0
 14 15  1  1
 14 16  1  0
 14 18  1  0
 15 49  1  0
 16 17  1  0
 16 50  1  1
 17 51  1  0
 18 19  1  1
 18 20  1  0
 19 52  1  0
 19 53  1  0
 19 54  1  0
 20 31  1  0
 20 21  1  0
 20 55  1  1
 21 22  1  0
 21 23  1  0
 21 56  1  1
 22 57  1  0
 23 29  1  0
 23 24  2  0
 24 25  1  0
 24 58  1  0
 25 26  1  0
 25 27  1  0
 25 59  1  1
 26 60  1  0
 27 28  1  0
 27 61  1  0
 27 62  1  0
 29 28  1  1
 28 63  1  0
 28 64  1  0
 29 30  1  0
 29 31  1  0
 30 65  1  6
 31 32  1  0
 31 33  1  0
 32 66  1  0
 32 67  1  0
 32 68  1  0
 33 69  1  0
 33 70  1  0
 33 71  1  0
M  END
>  <i_m_ct_stereo_status>  (14) 
1

>  <s_m_source_file>  (14) 
/var/tmp/pbs.5076255.sched01/tmp6mkrr40i/0ze8ciewu.sdf

>  <i_m_source_file_index>  (14) 
10

>  <i_lp_mmshare_version>  (14) 
48012

>  <i_f3d_flags>  (14) 
1

>  <s_epik_input>  (14) 
TzFbQ0gyXVtDQEBIXShbQ0gzXSlbQ0BASF0yW0NAXShDMyhbQ0gzXSlbQ0gzXSkoW0NIMl1bQ0gyXVtDQEBIXShbQ0hdNClbT0hdKUM9NFtDQEhdKFtPSF0pW0NAQEhdM1tDQEBdKFtDQF0xMjUpKFtDSDNdKVtDQEBdNihbT0hdKVtDQEhdKFtPSF0pW0NASF0oW09IXSlbQ0BAXShbQ0gzXSkoW0NAQEhdNVtPSF0pW0NAQEhdNltPSF0=

>  <s_epik_cmdline>  (14) 
J2VwaWtfcHl0aG9uJywgJy1waHQnLCAnMi4wJywgJy1waCcsICc3LjAnLCAnLXRuJywgJzgnLCAnLW1hJywgJzIwMCcsICctaW1hZScsICc8aW5maWxlLm1hZT4nLCAnLW9tYWUnLCAnPG91dGZpbGUubWFlPic=

>  <r_lp_tautomer_probability>  (14) 
1

>  <r_epik_Ionization_Penalty>  (14) 
6.94239e-07

>  <r_epik_Ionization_Penalty_Charging>  (14) 
0

>  <r_epik_Ionization_Penalty_Neutral>  (14) 
6.94239e-07

>  <r_epik_State_Penalty>  (14) 
-0

>  <r_epik_Charging_Adjusted_Penalty>  (14) 
0

>  <i_epik_Tot_Q>  (14) 
0

>  <i_epik_Tot_abs_Q>  (14) 
0

>  <s_lp_Force_Field>  (14) 
OPLS3e

>  <r_lp_Energy>  (14) 
129.634

>  <b_lp_Chiralities_Consistent>  (14) 
1

>  <s_lp_Variant>  (14) 
7:0-1

>  <s_i_glide_gridfile>  (14) 
pfpi4k_grid

>  <i_i_glide_lignum>  (14) 
10

>  <i_i_glide_rotatable_bonds>  (14) 
7

>  <r_i_docking_score>  (14) 
-3.44627

>  <r_i_glide_ligand_efficiency>  (14) 
-0.104432

>  <r_i_glide_ligand_efficiency_sa>  (14) 
-0.334971

>  <r_i_glide_ligand_efficiency_ln>  (14) 
-0.766433

>  <r_i_glide_gscore>  (14) 
-3.44627

>  <r_i_glide_lipo>  (14) 
-0.331938

>  <r_i_glide_hbond>  (14) 
-0.00355825

>  <r_i_glide_metal>  (14) 
-0

>  <r_i_glide_rewards>  (14) 
-0.22797

>  <r_i_glide_evdw>  (14) 
-25.814

>  <r_i_glide_ecoul>  (14) 
-10.614

>  <r_i_glide_erotb>  (14) 
0

>  <r_i_glide_esite>  (14) 
0

>  <r_i_glide_emodel>  (14) 
-43.9242

>  <r_i_glide_energy>  (14) 
-36.428

>  <r_i_glide_einternal>  (14) 
2.47128

>  <r_i_glide_intrahb_reward>  (14) 
-0

>  <i_i_glide_confnum>  (14) 
1

>  <i_i_glide_posenum>  (14) 
21

>  <r_i_glide_eff_state_penalty>  (14) 
0

>  <ligand_id>  (14) 
7

>  <original_smiles>  (14) 
CC1COC23C(O)C4(C)C(O)C(O)C(O)(C4O)C2(C)C2C(O)C4=CC(O)CCC4(C13)C2(C)C

>  <smiles>  (14) 
[H]OC1([H])C([H])=C2C([H])(O[H])C3([H])C4(C([H])([H])[H])C5(O[H])C([H])(O[H])C([H])(O[H])C(C([H])([H])[H])(C5([H])O[H])C([H])(O[H])C45OC([H])([H])C([H])(C([H])([H])[H])C5([H])C2(C([H])([H])C1([H])[H])C3(C([H])([H])[H])C([H])([H])[H]

$$$$
7:0:1
     RDKit          3D

 71 76  0  0  1  0  0  0  0  0999 V2000
    1.0440   -7.0239    2.0884 C   0  0  0  0  0  0  0  0  0  0  0  0
    2.0595   -6.1260    2.8220 C   0  0  2  0  0  0  0  0  0  0  0  0
    1.5879   -4.6997    2.9794 C   0  0  0  0  0  0  0  0  0  0  0  0
    2.2111   -3.9611    1.9446 O   0  0  0  0  0  0  0  0  0  0  0  0
    3.4287   -4.5521    1.4878 C   0  0  1  0  0  0  0  0  0  0  0  0
    3.1676   -4.5715   -0.0805 C   0  0  1  0  0  0  0  0  0  0  0  0
    1.8302   -4.9248   -0.3594 O   0  0  0  0  0  0  0  0  0  0  0  0
    3.6751   -3.3772   -0.9768 C   0  0  2  0  0  0  0  0  0  0  0  0
    2.7131   -3.0394   -2.1581 C   0  0  0  0  0  0  0  0  0  0  0  0
    5.1177   -3.7067   -1.4738 C   0  0  1  0  0  0  0  0  0  0  0  0
    5.4294   -3.0224   -2.6805 O   0  0  0  0  0  0  0  0  0  0  0  0
    6.0542   -3.2786   -0.3119 C   0  0  1  0  0  0  0  0  0  0  0  0
    7.1239   -2.4636   -0.7850 O   0  0  0  0  0  0  0  0  0  0  0  0
    5.1342   -2.6318    0.7708 C   0  0  1  0  0  0  0  0  0  0  0  0
    5.8379   -1.5164    1.3179 O   0  0  0  0  0  0  0  0  0  0  0  0
    3.9124   -2.1690   -0.0693 C   0  0  1  0  0  0  0  0  0  0  0  0
    4.1902   -1.0125   -0.8330 O   0  0  0  0  0  0  0  0  0  0  0  0
    4.6089   -3.5761    1.9633 C   0  0  1  0  0  0  0  0  0  0  0  0
    4.0222   -2.5309    2.9904 C   0  0  0  0  0  0  0  0  0  0  0  0
    5.7861   -4.3958    2.6809 C   0  0  1  0  0  0  0  0  0  0  0  0
    5.6155   -4.6096    4.2255 C   0  0  1  0  0  0  0  0  0  0  0  0
    5.3711   -3.5941    5.1770 O   0  0  0  0  0  0  0  0  0  0  0  0
    4.7346   -5.8301    4.3367 C   0  0  0  0  0  0  0  0  0  0  0  0
    4.3381   -6.3947    5.4886 C   0  0  0  0  0  0  0  0  0  0  0  0
    3.7631   -7.7998    5.5872 C   0  0  1  0  0  0  0  0  0  0  0  0
    2.4870   -7.7669    6.1860 O   0  0  0  0  0  0  0  0  0  0  0  0
    3.6990   -8.5641    4.2407 C   0  0  0  0  0  0  0  0  0  0  0  0
    4.6826   -8.0469    3.1709 C   0  0  0  0  0  0  0  0  0  0  0  0
    4.6704   -6.4936    2.9751 C   0  0  1  0  0  0  0  0  0  0  0  0
    3.4210   -6.0084    2.1220 C   0  0  1  0  0  0  0  0  0  0  0  0
    5.9580   -5.9326    2.3086 C   0  0  0  0  0  0  0  0  0  0  0  0
    6.0863   -6.3826    0.8540 C   0  0  0  0  0  0  0  0  0  0  0  0
    7.3026   -6.5153    2.8751 C   0  0  0  0  0  0  0  0  0  0  0  0
    0.7729   -6.6337    1.1098 H   0  0  0  0  0  0  0  0  0  0  0  0
    0.1244   -7.1239    2.6664 H   0  0  0  0  0  0  0  0  0  0  0  0
    1.4438   -8.0272    1.9344 H   0  0  0  0  0  0  0  0  0  0  0  0
    2.1405   -6.4988    3.8339 H   0  0  0  0  0  0  0  0  0  0  0  0
    0.5081   -4.6072    2.9028 H   0  0  0  0  0  0  0  0  0  0  0  0
    1.8723   -4.3168    3.9612 H   0  0  0  0  0  0  0  0  0  0  0  0
    3.6167   -5.4586   -0.5011 H   0  0  0  0  0  0  0  0  0  0  0  0
    1.8097   -5.1179   -1.2898 H   0  0  0  0  0  0  0  0  0  0  0  0
    3.0587   -2.2007   -2.7604 H   0  0  0  0  0  0  0  0  0  0  0  0
    1.7254   -2.7566   -1.8010 H   0  0  0  0  0  0  0  0  0  0  0  0
    2.5917   -3.8548   -2.8606 H   0  0  0  0  0  0  0  0  0  0  0  0
    5.2493   -4.7598   -1.7136 H   0  0  0  0  0  0  0  0  0  0  0  0
    5.1994   -2.1141   -2.5475 H   0  0  0  0  0  0  0  0  0  0  0  0
    6.5890   -4.1076    0.1136 H   0  0  0  0  0  0  0  0  0  0  0  0
    7.6693   -3.0112   -1.3298 H   0  0  0  0  0  0  0  0  0  0  0  0
    5.2262   -1.0123    1.8307 H   0  0  0  0  0  0  0  0  0  0  0  0
    3.0171   -1.9392    0.5010 H   0  0  0  0  0  0  0  0  0  0  0  0
    3.3579   -0.6828   -1.1427 H   0  0  0  0  0  0  0  0  0  0  0  0
    4.7899   -1.9024    3.4481 H   0  0  0  0  0  0  0  0  0  0  0  0
    3.4876   -3.0090    3.8026 H   0  0  0  0  0  0  0  0  0  0  0  0
    3.2976   -1.8472    2.5548 H   0  0  0  0  0  0  0  0  0  0  0  0
    6.7007   -3.8648    2.4589 H   0  0  0  0  0  0  0  0  0  0  0  0
    6.5843   -4.9128    4.6111 H   0  0  0  0  0  0  0  0  0  0  0  0
    4.5871   -3.1320    4.9297 H   0  0  0  0  0  0  0  0  0  0  0  0
    4.5237   -5.8917    6.4233 H   0  0  0  0  0  0  0  0  0  0  0  0
    4.4328   -8.3438    6.2541 H   0  0  0  0  0  0  0  0  0  0  0  0
    2.2290   -8.6555    6.3813 H   0  0  0  0  0  0  0  0  0  0  0  0
    3.9015   -9.6202    4.4239 H   0  0  0  0  0  0  0  0  0  0  0  0
    2.6912   -8.5612    3.8336 H   0  0  0  0  0  0  0  0  0  0  0  0
    5.6684   -8.3728    3.4956 H   0  0  0  0  0  0  0  0  0  0  0  0
    4.5077   -8.5584    2.2258 H   0  0  0  0  0  0  0  0  0  0  0  0
    3.3819   -6.7050    1.2889 H   0  0  0  0  0  0  0  0  0  0  0  0
    5.9339   -7.4632    0.7908 H   0  0  0  0  0  0  0  0  0  0  0  0
    7.0786   -6.1778    0.4469 H   0  0  0  0  0  0  0  0  0  0  0  0
    5.3830   -5.9433    0.1804 H   0  0  0  0  0  0  0  0  0  0  0  0
    7.5663   -7.4689    2.4154 H   0  0  0  0  0  0  0  0  0  0  0  0
    7.3041   -6.7261    3.9433 H   0  0  0  0  0  0  0  0  0  0  0  0
    8.1321   -5.8392    2.6658 H   0  0  0  0  0  0  0  0  0  0  0  0
  1  2  1  0
  1 34  1  0
  1 35  1  0
  1 36  1  0
  2 30  1  0
  2  3  1  0
  2 37  1  1
  3  4  1  0
  3 38  1  0
  3 39  1  0
  5  4  1  1
  5 18  1  0
  5 30  1  0
  5  6  1  0
  6  7  1  0
  6  8  1  0
  6 40  1  6
  7 41  1  0
  8 16  1  0
  8  9  1  6
  8 10  1  0
  9 42  1  0
  9 43  1  0
  9 44  1  0
 10 11  1  0
 10 12  1  0
 10 45  1  6
 11 46  1  0
 12 13  1  0
 12 14  1  0
 12 47  1  1
 13 48  1  0
 14 15  1  1
 14 16  1  0
 14 18  1  0
 15 49  1  0
 16 17  1  0
 16 50  1  1
 17 51  1  0
 18 19  1  1
 18 20  1  0
 19 52  1  0
 19 53  1  0
 19 54  1  0
 20 31  1  0
 20 21  1  0
 20 55  1  1
 21 22  1  0
 21 23  1  0
 21 56  1  1
 22 57  1  0
 23 29  1  0
 23 24  2  0
 24 25  1  0
 24 58  1  0
 25 26  1  0
 25 27  1  0
 25 59  1  1
 26 60  1  0
 27 28  1  0
 27 61  1  0
 27 62  1  0
 29 28  1  1
 28 63  1  0
 28 64  1  0
 29 30  1  0
 29 31  1  0
 30 65  1  6
 31 32  1  0
 31 33  1  0
 32 66  1  0
 32 67  1  0
 32 68  1  0
 33 69  1  0
 33 70  1  0
 33 71  1  0
M  END
>  <i_m_ct_stereo_status>  (15) 
1

>  <s_m_source_file>  (15) 
/var/tmp/pbs.5076255.sched01/tmp6mkrr40i/0ze8ciewu.sdf

>  <i_m_source_file_index>  (15) 
10

>  <i_lp_mmshare_version>  (15) 
48012

>  <i_f3d_flags>  (15) 
1

>  <s_epik_input>  (15) 
TzFbQ0gyXVtDQEBIXShbQ0gzXSlbQ0BASF0yW0NAXShDMyhbQ0gzXSlbQ0gzXSkoW0NIMl1bQ0gyXVtDQEBIXShbQ0hdNClbT0hdKUM9NFtDQEhdKFtPSF0pW0NAQEhdM1tDQEBdKFtDQF0xMjUpKFtDSDNdKVtDQEBdNihbT0hdKVtDQEhdKFtPSF0pW0NASF0oW09IXSlbQ0BAXShbQ0gzXSkoW0NAQEhdNVtPSF0pW0NAQEhdNltPSF0=

>  <s_epik_cmdline>  (15) 
J2VwaWtfcHl0aG9uJywgJy1waHQnLCAnMi4wJywgJy1waCcsICc3LjAnLCAnLXRuJywgJzgnLCAnLW1hJywgJzIwMCcsICctaW1hZScsICc8aW5maWxlLm1hZT4nLCAnLW9tYWUnLCAnPG91dGZpbGUubWFlPic=

>  <r_lp_tautomer_probability>  (15) 
1

>  <r_epik_Ionization_Penalty>  (15) 
6.94239e-07

>  <r_epik_Ionization_Penalty_Charging>  (15) 
0

>  <r_epik_Ionization_Penalty_Neutral>  (15) 
6.94239e-07

>  <r_epik_State_Penalty>  (15) 
-0

>  <r_epik_Charging_Adjusted_Penalty>  (15) 
0

>  <i_epik_Tot_Q>  (15) 
0

>  <i_epik_Tot_abs_Q>  (15) 
0

>  <s_lp_Force_Field>  (15) 
OPLS3e

>  <r_lp_Energy>  (15) 
129.634

>  <b_lp_Chiralities_Consistent>  (15) 
1

>  <s_lp_Variant>  (15) 
7:0-1

>  <s_i_glide_gridfile>  (15) 
pfpi4k_grid

>  <i_i_glide_lignum>  (15) 
10

>  <i_i_glide_rotatable_bonds>  (15) 
7

>  <r_i_docking_score>  (15) 
-3.41229

>  <r_i_glide_ligand_efficiency>  (15) 
-0.103403

>  <r_i_glide_ligand_efficiency_sa>  (15) 
-0.331668

>  <r_i_glide_ligand_efficiency_ln>  (15) 
-0.758875

>  <r_i_glide_gscore>  (15) 
-3.41229

>  <r_i_glide_lipo>  (15) 
-0.308439

>  <r_i_glide_hbond>  (15) 
0

>  <r_i_glide_metal>  (15) 
-0

>  <r_i_glide_rewards>  (15) 
-0.72797

>  <r_i_glide_evdw>  (15) 
-24.531

>  <r_i_glide_ecoul>  (15) 
-7.66221

>  <r_i_glide_erotb>  (15) 
0

>  <r_i_glide_esite>  (15) 
0

>  <r_i_glide_emodel>  (15) 
-45.0197

>  <r_i_glide_energy>  (15) 
-32.1932

>  <r_i_glide_einternal>  (15) 
1.76676

>  <r_i_glide_intrahb_reward>  (15) 
-0.5

>  <i_i_glide_confnum>  (15) 
1

>  <i_i_glide_posenum>  (15) 
5

>  <r_i_glide_eff_state_penalty>  (15) 
0

>  <ligand_id>  (15) 
7

>  <original_smiles>  (15) 
CC1COC23C(O)C4(C)C(O)C(O)C(O)(C4O)C2(C)C2C(O)C4=CC(O)CCC4(C13)C2(C)C

>  <smiles>  (15) 
[H]OC1([H])C([H])=C2C([H])(O[H])C3([H])C4(C([H])([H])[H])C5(O[H])C([H])(O[H])C([H])(O[H])C(C([H])([H])[H])(C5([H])O[H])C([H])(O[H])C45OC([H])([H])C([H])(C([H])([H])[H])C5([H])C2(C([H])([H])C1([H])[H])C3(C([H])([H])[H])C([H])([H])[H]

$$$$
7:0:2
     RDKit          3D

 71 76  0  0  1  0  0  0  0  0999 V2000
    1.2463   -7.9500    1.7749 C   0  0  0  0  0  0  0  0  0  0  0  0
    2.0117   -7.0207    2.7356 C   0  0  2  0  0  0  0  0  0  0  0  0
    1.2593   -5.7417    3.0178 C   0  0  0  0  0  0  0  0  0  0  0  0
    1.8231   -4.7553    2.1707 O   0  0  0  0  0  0  0  0  0  0  0  0
    3.1739   -5.0485    1.7799 C   0  0  1  0  0  0  0  0  0  0  0  0
    3.0527   -4.8656    0.1908 C   0  0  1  0  0  0  0  0  0  0  0  0
    1.8115   -5.3429   -0.3014 O   0  0  0  0  0  0  0  0  0  0  0  0
    3.4175   -3.4693   -0.4590 C   0  0  2  0  0  0  0  0  0  0  0  0
    2.5152   -3.1285   -1.6875 C   0  0  0  0  0  0  0  0  0  0  0  0
    4.9323   -3.4789   -0.8303 C   0  0  1  0  0  0  0  0  0  0  0  0
    5.2624   -2.5996   -1.8984 O   0  0  0  0  0  0  0  0  0  0  0  0
    5.6610   -3.0964    0.4816 C   0  0  1  0  0  0  0  0  0  0  0  0
    6.6368   -2.0766    0.2755 O   0  0  0  0  0  0  0  0  0  0  0  0
    4.5525   -2.7812    1.5298 C   0  0  1  0  0  0  0  0  0  0  0  0
    5.0032   -1.6787    2.3076 O   0  0  0  0  0  0  0  0  0  0  0  0
    3.3336   -2.4051    0.6455 C   0  0  1  0  0  0  0  0  0  0  0  0
    3.4127   -1.0938    0.1158 O   0  0  0  0  0  0  0  0  0  0  0  0
    4.1279   -3.9806    2.5060 C   0  0  1  0  0  0  0  0  0  0  0  0
    3.2652   -3.2327    3.6023 C   0  0  0  0  0  0  0  0  0  0  0  0
    5.3818   -4.6838    3.2203 C   0  0  1  0  0  0  0  0  0  0  0  0
    5.1301   -5.1589    4.6987 C   0  0  1  0  0  0  0  0  0  0  0  0
    4.6325   -4.3604    5.7526 O   0  0  0  0  0  0  0  0  0  0  0  0
    4.4792   -6.5153    4.5525 C   0  0  0  0  0  0  0  0  0  0  0  0
    4.0817   -7.3122    5.5643 C   0  0  0  0  0  0  0  0  0  0  0  0
    3.7620   -8.7924    5.4010 C   0  0  1  0  0  0  0  0  0  0  0  0
    2.4540   -9.0646    5.8604 O   0  0  0  0  0  0  0  0  0  0  0  0
    3.9521   -9.3399    3.9617 C   0  0  0  0  0  0  0  0  0  0  0  0
    4.9095   -8.4965    3.0875 C   0  0  0  0  0  0  0  0  0  0  0  0
    4.6343   -6.9596    3.1086 C   0  0  1  0  0  0  0  0  0  0  0  0
    3.3845   -6.5665    2.2050 C   0  0  1  0  0  0  0  0  0  0  0  0
    5.8524   -6.0977    2.6469 C   0  0  0  0  0  0  0  0  0  0  0  0
    6.1804   -6.2932    1.1515 C   0  0  0  0  0  0  0  0  0  0  0  0
    7.2221   -6.5302    3.2827 C   0  0  0  0  0  0  0  0  0  0  0  0
    0.9882   -7.4592    0.8384 H   0  0  0  0  0  0  0  0  0  0  0  0
    0.3161   -8.2990    2.2264 H   0  0  0  0  0  0  0  0  0  0  0  0
    1.8330   -8.8358    1.5286 H   0  0  0  0  0  0  0  0  0  0  0  0
    2.0751   -7.5281    3.6906 H   0  0  0  0  0  0  0  0  0  0  0  0
    0.1909   -5.8416    2.8436 H   0  0  0  0  0  0  0  0  0  0  0  0
    1.3878   -5.4691    4.0625 H   0  0  0  0  0  0  0  0  0  0  0  0
    3.6711   -5.5991   -0.3090 H   0  0  0  0  0  0  0  0  0  0  0  0
    1.9521   -5.4968   -1.2356 H   0  0  0  0  0  0  0  0  0  0  0  0
    2.7431   -2.1539   -2.1214 H   0  0  0  0  0  0  0  0  0  0  0  0
    1.4660   -3.0761   -1.3913 H   0  0  0  0  0  0  0  0  0  0  0  0
    2.5937   -3.8546   -2.4896 H   0  0  0  0  0  0  0  0  0  0  0  0
    5.2555   -4.4507   -1.1997 H   0  0  0  0  0  0  0  0  0  0  0  0
    4.6911   -2.7950   -2.6229 H   0  0  0  0  0  0  0  0  0  0  0  0
    6.2848   -3.8931    0.8414 H   0  0  0  0  0  0  0  0  0  0  0  0
    7.3865   -2.4878   -0.1235 H   0  0  0  0  0  0  0  0  0  0  0  0
    4.2750   -1.3745    2.8217 H   0  0  0  0  0  0  0  0  0  0  0  0
    2.3666   -2.4489    1.1461 H   0  0  0  0  0  0  0  0  0  0  0  0
    2.5603   -0.9099   -0.2735 H   0  0  0  0  0  0  0  0  0  0  0  0
    3.8484   -2.5569    4.2294 H   0  0  0  0  0  0  0  0  0  0  0  0
    2.7606   -3.9113    4.2815 H   0  0  0  0  0  0  0  0  0  0  0  0
    2.4591   -2.6223    3.1981 H   0  0  0  0  0  0  0  0  0  0  0  0
    6.2107   -3.9770    3.2107 H   0  0  0  0  0  0  0  0  0  0  0  0
    6.1079   -5.3314    5.1360 H   0  0  0  0  0  0  0  0  0  0  0  0
    3.7835   -4.0351    5.5069 H   0  0  0  0  0  0  0  0  0  0  0  0
    4.0961   -6.9399    6.5797 H   0  0  0  0  0  0  0  0  0  0  0  0
    4.4550   -9.3208    6.0575 H   0  0  0  0  0  0  0  0  0  0  0  0
    2.3684   -9.9950    6.0154 H   0  0  0  0  0  0  0  0  0  0  0  0
    4.3250  -10.3648    4.0229 H   0  0  0  0  0  0  0  0  0  0  0  0
    2.9948   -9.4479    3.4566 H   0  0  0  0  0  0  0  0  0  0  0  0
    5.9041   -8.7105    3.4737 H   0  0  0  0  0  0  0  0  0  0  0  0
    4.9088   -8.8843    2.0692 H   0  0  0  0  0  0  0  0  0  0  0  0
    3.5382   -7.1264    1.2826 H   0  0  0  0  0  0  0  0  0  0  0  0
    6.2523   -7.3548    0.9104 H   0  0  0  0  0  0  0  0  0  0  0  0
    7.1459   -5.8595    0.8783 H   0  0  0  0  0  0  0  0  0  0  0  0
    5.4529   -5.8951    0.4769 H   0  0  0  0  0  0  0  0  0  0  0  0
    7.6920   -7.3441    2.7260 H   0  0  0  0  0  0  0  0  0  0  0  0
    7.1681   -6.8986    4.3054 H   0  0  0  0  0  0  0  0  0  0  0  0
    7.9368   -5.7048    3.2667 H   0  0  0  0  0  0  0  0  0  0  0  0
  1  2  1  0
  1 34  1  0
  1 35  1  0
  1 36  1  0
  2 30  1  0
  2  3  1  0
  2 37  1  1
  3  4  1  0
  3 38  1  0
  3 39  1  0
  5  4  1  1
  5 18  1  0
  5 30  1  0
  5  6  1  0
  6  7  1  0
  6  8  1  0
  6 40  1  6
  7 41  1  0
  8 16  1  0
  8  9  1  6
  8 10  1  0
  9 42  1  0
  9 43  1  0
  9 44  1  0
 10 11  1  0
 10 12  1  0
 10 45  1  6
 11 46  1  0
 12 13  1  0
 12 14  1  0
 12 47  1  1
 13 48  1  0
 14 15  1  1
 14 16  1  0
 14 18  1  0
 15 49  1  0
 16 17  1  0
 16 50  1  1
 17 51  1  0
 18 19  1  1
 18 20  1  0
 19 52  1  0
 19 53  1  0
 19 54  1  0
 20 31  1  0
 20 21  1  0
 20 55  1  1
 21 22  1  0
 21 23  1  0
 21 56  1  1
 22 57  1  0
 23 29  1  0
 23 24  2  0
 24 25  1  0
 24 58  1  0
 25 26  1  0
 25 27  1  0
 25 59  1  1
 26 60  1  0
 27 28  1  0
 27 61  1  0
 27 62  1  0
 29 28  1  1
 28 63  1  0
 28 64  1  0
 29 30  1  0
 29 31  1  0
 30 65  1  6
 31 32  1  0
 31 33  1  0
 32 66  1  0
 32 67  1  0
 32 68  1  0
 33 69  1  0
 33 70  1  0
 33 71  1  0
M  END
>  <i_m_ct_stereo_status>  (16) 
1

>  <s_m_source_file>  (16) 
/var/tmp/pbs.5076255.sched01/tmp6mkrr40i/0ze8ciewu.sdf

>  <i_m_source_file_index>  (16) 
10

>  <i_lp_mmshare_version>  (16) 
48012

>  <i_f3d_flags>  (16) 
1

>  <s_epik_input>  (16) 
TzFbQ0gyXVtDQEBIXShbQ0gzXSlbQ0BASF0yW0NAXShDMyhbQ0gzXSlbQ0gzXSkoW0NIMl1bQ0gyXVtDQEBIXShbQ0hdNClbT0hdKUM9NFtDQEhdKFtPSF0pW0NAQEhdM1tDQEBdKFtDQF0xMjUpKFtDSDNdKVtDQEBdNihbT0hdKVtDQEhdKFtPSF0pW0NASF0oW09IXSlbQ0BAXShbQ0gzXSkoW0NAQEhdNVtPSF0pW0NAQEhdNltPSF0=

>  <s_epik_cmdline>  (16) 
J2VwaWtfcHl0aG9uJywgJy1waHQnLCAnMi4wJywgJy1waCcsICc3LjAnLCAnLXRuJywgJzgnLCAnLW1hJywgJzIwMCcsICctaW1hZScsICc8aW5maWxlLm1hZT4nLCAnLW9tYWUnLCAnPG91dGZpbGUubWFlPic=

>  <r_lp_tautomer_probability>  (16) 
1

>  <r_epik_Ionization_Penalty>  (16) 
6.94239e-07

>  <r_epik_Ionization_Penalty_Charging>  (16) 
0

>  <r_epik_Ionization_Penalty_Neutral>  (16) 
6.94239e-07

>  <r_epik_State_Penalty>  (16) 
-0

>  <r_epik_Charging_Adjusted_Penalty>  (16) 
0

>  <i_epik_Tot_Q>  (16) 
0

>  <i_epik_Tot_abs_Q>  (16) 
0

>  <s_lp_Force_Field>  (16) 
OPLS3e

>  <r_lp_Energy>  (16) 
129.634

>  <b_lp_Chiralities_Consistent>  (16) 
1

>  <s_lp_Variant>  (16) 
7:0-1

>  <s_i_glide_gridfile>  (16) 
pfpi4k_grid

>  <i_i_glide_lignum>  (16) 
10

>  <i_i_glide_rotatable_bonds>  (16) 
7

>  <r_i_docking_score>  (16) 
-3.32183

>  <r_i_glide_ligand_efficiency>  (16) 
-0.100661

>  <r_i_glide_ligand_efficiency_sa>  (16) 
-0.322875

>  <r_i_glide_ligand_efficiency_ln>  (16) 
-0.738757

>  <r_i_glide_gscore>  (16) 
-3.32183

>  <r_i_glide_lipo>  (16) 
-0.327684

>  <r_i_glide_hbond>  (16) 
-0.00431058

>  <r_i_glide_metal>  (16) 
-0

>  <r_i_glide_rewards>  (16) 
-0.22797

>  <r_i_glide_evdw>  (16) 
-25.7846

>  <r_i_glide_ecoul>  (16) 
-9.81756

>  <r_i_glide_erotb>  (16) 
0

>  <r_i_glide_esite>  (16) 
0

>  <r_i_glide_emodel>  (16) 
-42.9612

>  <r_i_glide_energy>  (16) 
-35.6021

>  <r_i_glide_einternal>  (16) 
2.20221

>  <r_i_glide_intrahb_reward>  (16) 
-0

>  <i_i_glide_confnum>  (16) 
2

>  <i_i_glide_posenum>  (16) 
1

>  <r_i_glide_eff_state_penalty>  (16) 
0

>  <ligand_id>  (16) 
7

>  <original_smiles>  (16) 
CC1COC23C(O)C4(C)C(O)C(O)C(O)(C4O)C2(C)C2C(O)C4=CC(O)CCC4(C13)C2(C)C

>  <smiles>  (16) 
[H]OC1([H])C([H])=C2C([H])(O[H])C3([H])C4(C([H])([H])[H])C5(O[H])C([H])(O[H])C([H])(O[H])C(C([H])([H])[H])(C5([H])O[H])C([H])(O[H])C45OC([H])([H])C([H])(C([H])([H])[H])C5([H])C2(C([H])([H])C1([H])[H])C3(C([H])([H])[H])C([H])([H])[H]

$$$$
8:0:0
     RDKit          3D

 49 53  0  0  1  0  0  0  0  0999 V2000
    0.6856   -0.7793    9.7999 C   0  0  0  0  0  0  0  0  0  0  0  0
    0.1810   -0.6083    8.4866 O   0  0  0  0  0  0  0  0  0  0  0  0
    1.0363   -0.1397    7.5145 C   0  0  0  0  0  0  0  0  0  0  0  0
    2.4220    0.1399    7.7237 C   0  0  0  0  0  0  0  0  0  0  0  0
    3.2444    0.6564    6.6891 C   0  0  0  0  0  0  0  0  0  0  0  0
    2.6983    0.8476    5.4014 C   0  0  0  0  0  0  0  0  0  0  0  0
    1.3487    0.4880    5.2478 C   0  0  0  0  0  0  0  0  0  0  0  0
    0.4841    0.0717    6.2346 C   0  0  0  0  0  0  0  0  0  0  0  0
   -0.8145   -0.0599    5.8044 O   0  0  0  0  0  0  0  0  0  0  0  0
   -0.8811    0.5791    4.5078 C   0  0  1  0  0  0  0  0  0  0  0  0
   -1.3089    2.0447    4.7060 C   0  0  0  0  0  0  0  0  0  0  0  0
   -2.0013    2.3662    5.6693 O   0  0  0  0  0  0  0  0  0  0  0  0
   -0.8514    3.0723    3.6590 C   0  0  1  0  0  0  0  0  0  0  0  0
   -1.2593    4.5120    4.0329 C   0  0  0  0  0  0  0  0  0  0  0  0
   -1.3850    5.3234    2.8757 O   0  0  0  0  0  0  0  0  0  0  0  0
    0.6761    2.9397    3.4186 C   0  0  0  0  0  0  0  0  0  0  0  0
    1.0855    1.5168    2.9666 C   0  0  1  0  0  0  0  0  0  0  0  0
    0.5082    1.3580    1.6848 O   0  0  0  0  0  0  0  0  0  0  0  0
    2.6163    1.2677    2.8198 C   0  0  1  0  0  0  0  0  0  0  0  0
    3.3505    1.4819    4.1743 C   0  0  0  0  0  0  0  0  0  0  0  0
    2.8786   -0.0985    2.2498 N   0  0  1  0  0  0  0  0  0  0  0  0
    4.3057   -0.3812    1.9426 C   0  0  0  0  0  0  0  0  0  0  0  0
    2.2626   -1.2179    3.0091 C   0  0  0  0  0  0  0  0  0  0  0  0
    0.7819   -0.9444    3.3135 C   0  0  0  0  0  0  0  0  0  0  0  0
    0.5733    0.4509    3.9599 C   0  0  1  0  0  0  0  0  0  0  0  0
   -0.1184   -1.1370   10.4412 H   0  0  0  0  0  0  0  0  0  0  0  0
    1.0438    0.1601   10.2186 H   0  0  0  0  0  0  0  0  0  0  0  0
    1.4858   -1.5200    9.8303 H   0  0  0  0  0  0  0  0  0  0  0  0
    2.8814   -0.0164    8.6834 H   0  0  0  0  0  0  0  0  0  0  0  0
    4.2814    0.9073    6.8752 H   0  0  0  0  0  0  0  0  0  0  0  0
   -1.6143    0.0922    3.8650 H   0  0  0  0  0  0  0  0  0  0  0  0
   -1.3900    2.8053    2.7510 H   0  0  0  0  0  0  0  0  0  0  0  0
   -2.2340    4.5405    4.5172 H   0  0  0  0  0  0  0  0  0  0  0  0
   -0.5488    4.9641    4.7221 H   0  0  0  0  0  0  0  0  0  0  0  0
   -0.7370    5.0520    2.2240 H   0  0  0  0  0  0  0  0  0  0  0  0
    1.0121    3.6747    2.6860 H   0  0  0  0  0  0  0  0  0  0  0  0
    1.1866    3.2085    4.3450 H   0  0  0  0  0  0  0  0  0  0  0  0
    0.4194    2.2155    1.2761 H   0  0  0  0  0  0  0  0  0  0  0  0
    3.0127    1.9776    2.0997 H   0  0  0  0  0  0  0  0  0  0  0  0
    3.3956    2.5553    4.3612 H   0  0  0  0  0  0  0  0  0  0  0  0
    4.3923    1.1764    4.1210 H   0  0  0  0  0  0  0  0  0  0  0  0
    4.8984   -0.5507    2.8480 H   0  0  0  0  0  0  0  0  0  0  0  0
    4.7619    0.4304    1.3789 H   0  0  0  0  0  0  0  0  0  0  0  0
    4.3952   -1.2850    1.3438 H   0  0  0  0  0  0  0  0  0  0  0  0
    2.3512   -2.1350    2.4337 H   0  0  0  0  0  0  0  0  0  0  0  0
    2.8080   -1.4019    3.9380 H   0  0  0  0  0  0  0  0  0  0  0  0
    0.2123   -1.0185    2.3882 H   0  0  0  0  0  0  0  0  0  0  0  0
    0.4000   -1.7386    3.9585 H   0  0  0  0  0  0  0  0  0  0  0  0
    2.3918   -0.0915    1.3588 H   0  0  0  0  0  0  0  0  0  0  0  0
  1  2  1  0
  1 26  1  0
  1 27  1  0
  1 28  1  0
  2  3  1  0
  3  8  2  0
  3  4  1  0
  4  5  2  0
  4 29  1  0
  5  6  1  0
  5 30  1  0
  6 20  1  0
  6  7  2  0
  7 25  1  0
  7  8  1  0
  8  9  1  0
  9 10  1  0
 10 25  1  0
 10 11  1  0
 10 31  1  6
 11 12  2  0
 11 13  1  0
 13 14  1  0
 13 16  1  0
 13 32  1  6
 14 15  1  0
 14 33  1  0
 14 34  1  0
 15 35  1  0
 16 17  1  0
 16 36  1  0
 16 37  1  0
 17 25  1  0
 17 18  1  6
 17 19  1  0
 18 38  1  0
 19 20  1  0
 19 21  1  0
 19 39  1  6
 20 40  1  0
 20 41  1  0
 21 22  1  0
 21 23  1  0
 21 49  1  6
 22 42  1  0
 22 43  1  0
 22 44  1  0
 23 24  1  0
 23 45  1  0
 23 46  1  0
 25 24  1  6
 24 47  1  0
 24 48  1  0
M  CHG  1  21   1
M  END
>  <i_m_ct_stereo_status>  (17) 
1

>  <s_m_source_file>  (17) 
/var/tmp/pbs.5076255.sched01/tmp6mkrr40i/0ze8ciewu.sdf

>  <i_m_source_file_index>  (17) 
11

>  <i_lp_mmshare_version>  (17) 
48012

>  <i_f3d_flags>  (17) 
0

>  <s_epik_input>  (17) 
W0NAXTEyM2M0YzVbY0hdW2NIXWMoT1tDSDNdKWM0T1tDQEhdMUMoPU8pW0NAQEhdKFtDSDJdW09IXSlbQ0gyXVtDQEBdMihbT0hdKVtDQEBIXShbQ0gyXTUpTihbQ0gzXSlbQ0gyXVtDSDJdMw==

>  <s_epik_cmdline>  (17) 
J2VwaWtfcHl0aG9uJywgJy1waHQnLCAnMi4wJywgJy1waCcsICc3LjAnLCAnLXRuJywgJzgnLCAnLW1hJywgJzIwMCcsICctaW1hZScsICc8aW5maWxlLm1hZT4nLCAnLW9tYWUnLCAnPG91dGZpbGUubWFlPic=

>  <r_lp_tautomer_probability>  (17) 
1

>  <r_epik_Ionization_Penalty>  (17) 
0.115436

>  <r_epik_Ionization_Penalty_Charging>  (17) 
0.115435

>  <r_epik_Ionization_Penalty_Neutral>  (17) 
6.24243e-07

>  <r_epik_State_Penalty>  (17) 
0.105072

>  <r_epik_Charging_Adjusted_Penalty>  (17) 
0.220507

>  <i_epik_Tot_Q>  (17) 
1

>  <i_epik_Tot_abs_Q>  (17) 
1

>  <s_lp_Force_Field>  (17) 
OPLS3e

>  <r_lp_Energy>  (17) 
54.9423

>  <b_lp_Chiralities_Consistent>  (17) 
1

>  <s_lp_Variant>  (17) 
8:0-1

>  <s_i_glide_gridfile>  (17) 
pfpi4k_grid

>  <i_i_glide_lignum>  (17) 
11

>  <i_i_glide_rotatable_bonds>  (17) 
4

>  <r_i_docking_score>  (17) 
-4.37594

>  <r_i_glide_ligand_efficiency>  (17) 
-0.175038

>  <r_i_glide_ligand_efficiency_sa>  (17) 
-0.511813

>  <r_i_glide_ligand_efficiency_ln>  (17) 
-1.03723

>  <r_i_glide_gscore>  (17) 
-4.37594

>  <r_i_glide_lipo>  (17) 
-0.0946798

>  <r_i_glide_hbond>  (17) 
-0.410195

>  <r_i_glide_metal>  (17) 
-0

>  <r_i_glide_rewards>  (17) 
-1.04729

>  <r_i_glide_evdw>  (17) 
-16.6259

>  <r_i_glide_ecoul>  (17) 
-14.1828

>  <r_i_glide_erotb>  (17) 
0.158442

>  <r_i_glide_esite>  (17) 
-0.023502

>  <r_i_glide_emodel>  (17) 
-39.424

>  <r_i_glide_energy>  (17) 
-30.8087

>  <r_i_glide_einternal>  (17) 
3.81868

>  <r_i_glide_intrahb_reward>  (17) 
-0

>  <i_i_glide_confnum>  (17) 
2

>  <i_i_glide_posenum>  (17) 
4

>  <r_i_glide_eff_state_penalty>  (17) 
0

>  <ligand_id>  (17) 
8

>  <original_smiles>  (17) 
COc1ccc2c3c1OC1C(=O)C(CO)CC4(O)C(C2)N(C)CCC314

>  <smiles>  (17) 
[H]OC([H])([H])C1([H])C(=O)C2([H])Oc3c(OC([H])([H])[H])c([H])c([H])c4c3C23C([H])([H])C([H])([H])[N+]([H])(C([H])([H])[H])C([H])(C4([H])[H])C3(O[H])C1([H])[H]

$$$$
8:0:1
     RDKit          3D

 49 53  0  0  1  0  0  0  0  0999 V2000
    1.0499    3.4940   10.4095 C   0  0  0  0  0  0  0  0  0  0  0  0
    1.5424    3.5824    9.0830 O   0  0  0  0  0  0  0  0  0  0  0  0
    0.7840    3.0418    8.0676 C   0  0  0  0  0  0  0  0  0  0  0  0
   -0.4719    2.3878    8.2545 C   0  0  0  0  0  0  0  0  0  0  0  0
   -1.1847    1.8195    7.1674 C   0  0  0  0  0  0  0  0  0  0  0  0
   -0.6732    1.9459    5.8604 C   0  0  0  0  0  0  0  0  0  0  0  0
    0.5262    2.6623    5.7340 C   0  0  0  0  0  0  0  0  0  0  0  0
    1.3034    3.1539    6.7635 C   0  0  0  0  0  0  0  0  0  0  0  0
    2.5022    3.6734    6.3366 O   0  0  0  0  0  0  0  0  0  0  0  0
    2.6657    3.2512    4.9640 C   0  0  1  0  0  0  0  0  0  0  0  0
    3.4686    1.9375    4.9497 C   0  0  0  0  0  0  0  0  0  0  0  0
    4.2822    1.6871    5.8372 O   0  0  0  0  0  0  0  0  0  0  0  0
    3.2461    0.9705    3.7777 C   0  0  1  0  0  0  0  0  0  0  0  0
    4.0362   -0.3525    3.9415 C   0  0  0  0  0  0  0  0  0  0  0  0
    5.4247   -0.1319    3.7959 O   0  0  0  0  0  0  0  0  0  0  0  0
    1.7266    0.7378    3.5784 C   0  0  0  0  0  0  0  0  0  0  0  0
    0.9355    2.0549    3.3281 C   0  0  1  0  0  0  0  0  0  0  0  0
    1.4306    2.5105    2.0820 O   0  0  0  0  0  0  0  0  0  0  0  0
   -0.6152    1.9062    3.2341 C   0  0  1  0  0  0  0  0  0  0  0  0
   -1.1995    1.3269    4.5626 C   0  0  0  0  0  0  0  0  0  0  0  0
   -1.2571    3.2186    2.8795 N   0  0  1  0  0  0  0  0  0  0  0  0
   -2.7262    3.1469    2.6380 C   0  0  0  0  0  0  0  0  0  0  0  0
   -0.9019    4.3471    3.7718 C   0  0  0  0  0  0  0  0  0  0  0  0
    0.6154    4.4373    4.0111 C   0  0  0  0  0  0  0  0  0  0  0  0
    1.2054    3.0750    4.4549 C   0  0  1  0  0  0  0  0  0  0  0  0
    1.7703    3.9591   11.0788 H   0  0  0  0  0  0  0  0  0  0  0  0
    0.9296    2.4577   10.7232 H   0  0  0  0  0  0  0  0  0  0  0  0
    0.1041    4.0231   10.5238 H   0  0  0  0  0  0  0  0  0  0  0  0
   -0.9050    2.2929    9.2364 H   0  0  0  0  0  0  0  0  0  0  0  0
   -2.1164    1.2944    7.3319 H   0  0  0  0  0  0  0  0  0  0  0  0
    3.2210    3.9929    4.3899 H   0  0  0  0  0  0  0  0  0  0  0  0
    3.6297    1.4655    2.8882 H   0  0  0  0  0  0  0  0  0  0  0  0
    3.8494   -0.8150    4.9117 H   0  0  0  0  0  0  0  0  0  0  0  0
    3.7425   -1.0769    3.1833 H   0  0  0  0  0  0  0  0  0  0  0  0
    5.7109    0.4340    4.5021 H   0  0  0  0  0  0  0  0  0  0  0  0
    1.5772    0.0583    2.7365 H   0  0  0  0  0  0  0  0  0  0  0  0
    1.3467    0.2135    4.4585 H   0  0  0  0  0  0  0  0  0  0  0  0
    0.9263    3.2369    1.7076 H   0  0  0  0  0  0  0  0  0  0  0  0
   -0.8622    1.2146    2.4343 H   0  0  0  0  0  0  0  0  0  0  0  0
   -0.9568    0.2630    4.6020 H   0  0  0  0  0  0  0  0  0  0  0  0
   -2.2847    1.3532    4.5698 H   0  0  0  0  0  0  0  0  0  0  0  0
   -3.2914    3.0373    3.5673 H   0  0  0  0  0  0  0  0  0  0  0  0
   -2.9849    2.3191    1.9807 H   0  0  0  0  0  0  0  0  0  0  0  0
   -3.0719    4.0665    2.1683 H   0  0  0  0  0  0  0  0  0  0  0  0
   -1.2433    5.2752    3.3216 H   0  0  0  0  0  0  0  0  0  0  0  0
   -1.4255    4.2600    4.7266 H   0  0  0  0  0  0  0  0  0  0  0  0
    1.1009    4.7968    3.1020 H   0  0  0  0  0  0  0  0  0  0  0  0
    0.8109    5.2090    4.7605 H   0  0  0  0  0  0  0  0  0  0  0  0
   -0.8592    3.4846    1.9742 H   0  0  0  0  0  0  0  0  0  0  0  0
  1  2  1  0
  1 26  1  0
  1 27  1  0
  1 28  1  0
  2  3  1  0
  3  8  2  0
  3  4  1  0
  4  5  2  0
  4 29  1  0
  5  6  1  0
  5 30  1  0
  6 20  1  0
  6  7  2  0
  7 25  1  0
  7  8  1  0
  8  9  1  0
  9 10  1  0
 10 25  1  0
 10 11  1  0
 10 31  1  6
 11 12  2  0
 11 13  1  0
 13 14  1  0
 13 16  1  0
 13 32  1  6
 14 15  1  0
 14 33  1  0
 14 34  1  0
 15 35  1  0
 16 17  1  0
 16 36  1  0
 16 37  1  0
 17 25  1  0
 17 18  1  6
 17 19  1  0
 18 38  1  0
 19 20  1  0
 19 21  1  0
 19 39  1  6
 20 40  1  0
 20 41  1  0
 21 22  1  0
 21 23  1  0
 21 49  1  6
 22 42  1  0
 22 43  1  0
 22 44  1  0
 23 24  1  0
 23 45  1  0
 23 46  1  0
 25 24  1  6
 24 47  1  0
 24 48  1  0
M  CHG  1  21   1
M  END
>  <i_m_ct_stereo_status>  (18) 
1

>  <s_m_source_file>  (18) 
/var/tmp/pbs.5076255.sched01/tmp6mkrr40i/0ze8ciewu.sdf

>  <i_m_source_file_index>  (18) 
11

>  <i_lp_mmshare_version>  (18) 
48012

>  <i_f3d_flags>  (18) 
0

>  <s_epik_input>  (18) 
W0NAXTEyM2M0YzVbY0hdW2NIXWMoT1tDSDNdKWM0T1tDQEhdMUMoPU8pW0NAQEhdKFtDSDJdW09IXSlbQ0gyXVtDQEBdMihbT0hdKVtDQEBIXShbQ0gyXTUpTihbQ0gzXSlbQ0gyXVtDSDJdMw==

>  <s_epik_cmdline>  (18) 
J2VwaWtfcHl0aG9uJywgJy1waHQnLCAnMi4wJywgJy1waCcsICc3LjAnLCAnLXRuJywgJzgnLCAnLW1hJywgJzIwMCcsICctaW1hZScsICc8aW5maWxlLm1hZT4nLCAnLW9tYWUnLCAnPG91dGZpbGUubWFlPic=

>  <r_lp_tautomer_probability>  (18) 
1

>  <r_epik_Ionization_Penalty>  (18) 
0.115436

>  <r_epik_Ionization_Penalty_Charging>  (18) 
0.115435

>  <r_epik_Ionization_Penalty_Neutral>  (18) 
6.24243e-07

>  <r_epik_State_Penalty>  (18) 
0.105072

>  <r_epik_Charging_Adjusted_Penalty>  (18) 
0.220507

>  <i_epik_Tot_Q>  (18) 
1

>  <i_epik_Tot_abs_Q>  (18) 
1

>  <s_lp_Force_Field>  (18) 
OPLS3e

>  <r_lp_Energy>  (18) 
54.9423

>  <b_lp_Chiralities_Consistent>  (18) 
1

>  <s_lp_Variant>  (18) 
8:0-1

>  <s_i_glide_gridfile>  (18) 
pfpi4k_grid

>  <i_i_glide_lignum>  (18) 
11

>  <i_i_glide_rotatable_bonds>  (18) 
4

>  <r_i_docking_score>  (18) 
-3.90749

>  <r_i_glide_ligand_efficiency>  (18) 
-0.1563

>  <r_i_glide_ligand_efficiency_sa>  (18) 
-0.457023

>  <r_i_glide_ligand_efficiency_ln>  (18) 
-0.926193

>  <r_i_glide_gscore>  (18) 
-3.90749

>  <r_i_glide_lipo>  (18) 
-0.0117176

>  <r_i_glide_hbond>  (18) 
-0.36

>  <r_i_glide_metal>  (18) 
-0

>  <r_i_glide_rewards>  (18) 
-1.54729

>  <r_i_glide_evdw>  (18) 
-15.8645

>  <r_i_glide_ecoul>  (18) 
-8.37626

>  <r_i_glide_erotb>  (18) 
0.158442

>  <r_i_glide_esite>  (18) 
-0.0972621

>  <r_i_glide_emodel>  (18) 
-38.675

>  <r_i_glide_energy>  (18) 
-24.2408

>  <r_i_glide_einternal>  (18) 
0.211985

>  <r_i_glide_intrahb_reward>  (18) 
-0.5

>  <i_i_glide_confnum>  (18) 
1

>  <i_i_glide_posenum>  (18) 
40

>  <r_i_glide_eff_state_penalty>  (18) 
0

>  <ligand_id>  (18) 
8

>  <original_smiles>  (18) 
COc1ccc2c3c1OC1C(=O)C(CO)CC4(O)C(C2)N(C)CCC314

>  <smiles>  (18) 
[H]OC([H])([H])C1([H])C(=O)C2([H])Oc3c(OC([H])([H])[H])c([H])c([H])c4c3C23C([H])([H])C([H])([H])[N+]([H])(C([H])([H])[H])C([H])(C4([H])[H])C3(O[H])C1([H])[H]

$$$$
8:0:2
     RDKit          3D

 49 53  0  0  1  0  0  0  0  0999 V2000
    6.7471    0.2747    6.2858 C   0  0  0  0  0  0  0  0  0  0  0  0
    5.5592    0.2142    5.5175 O   0  0  0  0  0  0  0  0  0  0  0  0
    4.6618    1.2540    5.6188 C   0  0  0  0  0  0  0  0  0  0  0  0
    4.8329    2.3874    6.4695 C   0  0  0  0  0  0  0  0  0  0  0  0
    3.8499    3.4086    6.5526 C   0  0  0  0  0  0  0  0  0  0  0  0
    2.7045    3.3368    5.7369 C   0  0  0  0  0  0  0  0  0  0  0  0
    2.6297    2.2350    4.8717 C   0  0  0  0  0  0  0  0  0  0  0  0
    3.5051    1.1700    4.8174 C   0  0  0  0  0  0  0  0  0  0  0  0
    3.0878    0.1670    3.9809 O   0  0  0  0  0  0  0  0  0  0  0  0
    1.7059    0.4446    3.6612 C   0  0  1  0  0  0  0  0  0  0  0  0
    0.8082   -0.3029    4.6615 C   0  0  0  0  0  0  0  0  0  0  0  0
    1.1804   -1.3538    5.1835 O   0  0  0  0  0  0  0  0  0  0  0  0
   -0.5767    0.2838    4.9672 C   0  0  1  0  0  0  0  0  0  0  0  0
   -1.3169   -0.4980    6.0779 C   0  0  0  0  0  0  0  0  0  0  0  0
   -1.7211   -1.7790    5.6425 O   0  0  0  0  0  0  0  0  0  0  0  0
   -0.4386    1.7919    5.3144 C   0  0  0  0  0  0  0  0  0  0  0  0
    0.2353    2.6146    4.1770 C   0  0  1  0  0  0  0  0  0  0  0  0
   -0.7076    2.5885    3.1111 O   0  0  0  0  0  0  0  0  0  0  0  0
    0.5298    4.1119    4.5079 C   0  0  1  0  0  0  0  0  0  0  0  0
    1.4751    4.2473    5.7329 C   0  0  0  0  0  0  0  0  0  0  0  0
    1.0684    4.8240    3.3004 N   0  0  1  0  0  0  0  0  0  0  0  0
    1.2391    6.2812    3.4909 C   0  0  0  0  0  0  0  0  0  0  0  0
    2.2746    4.2031    2.6973 C   0  0  0  0  0  0  0  0  0  0  0  0
    2.0882    2.6885    2.4983 C   0  0  0  0  0  0  0  0  0  0  0  0
    1.6014    1.9951    3.7977 C   0  0  1  0  0  0  0  0  0  0  0  0
    7.3296   -0.6250    6.0992 H   0  0  0  0  0  0  0  0  0  0  0  0
    6.5331    0.3096    7.3536 H   0  0  0  0  0  0  0  0  0  0  0  0
    7.3612    1.1301    6.0054 H   0  0  0  0  0  0  0  0  0  0  0  0
    5.7056    2.4900    7.0906 H   0  0  0  0  0  0  0  0  0  0  0  0
    3.9705    4.2366    7.2395 H   0  0  0  0  0  0  0  0  0  0  0  0
    1.4552    0.1017    2.6579 H   0  0  0  0  0  0  0  0  0  0  0  0
   -1.1634    0.2000    4.0544 H   0  0  0  0  0  0  0  0  0  0  0  0
   -0.6897   -0.6188    6.9623 H   0  0  0  0  0  0  0  0  0  0  0  0
   -2.2182    0.0348    6.3791 H   0  0  0  0  0  0  0  0  0  0  0  0
   -0.9538   -2.2322    5.3124 H   0  0  0  0  0  0  0  0  0  0  0  0
   -1.4281    2.2021    5.5265 H   0  0  0  0  0  0  0  0  0  0  0  0
    0.1264    1.8750    6.2458 H   0  0  0  0  0  0  0  0  0  0  0  0
   -0.3479    2.9886    2.3253 H   0  0  0  0  0  0  0  0  0  0  0  0
   -0.4112    4.5985    4.7614 H   0  0  0  0  0  0  0  0  0  0  0  0
    0.9077    4.0112    6.6342 H   0  0  0  0  0  0  0  0  0  0  0  0
    1.7990    5.2767    5.8839 H   0  0  0  0  0  0  0  0  0  0  0  0
    2.1026    6.5347    4.1128 H   0  0  0  0  0  0  0  0  0  0  0  0
    0.3510    6.7487    3.9238 H   0  0  0  0  0  0  0  0  0  0  0  0
    1.4113    6.7315    2.5181 H   0  0  0  0  0  0  0  0  0  0  0  0
    2.4675    4.6694    1.7305 H   0  0  0  0  0  0  0  0  0  0  0  0
    3.1569    4.3992    3.3082 H   0  0  0  0  0  0  0  0  0  0  0  0
    1.3868    2.5113    1.6814 H   0  0  0  0  0  0  0  0  0  0  0  0
    3.0301    2.2546    2.1633 H   0  0  0  0  0  0  0  0  0  0  0  0
    0.3698    4.7454    2.5660 H   0  0  0  0  0  0  0  0  0  0  0  0
  1  2  1  0
  1 26  1  0
  1 27  1  0
  1 28  1  0
  2  3  1  0
  3  8  2  0
  3  4  1  0
  4  5  2  0
  4 29  1  0
  5  6  1  0
  5 30  1  0
  6 20  1  0
  6  7  2  0
  7 25  1  0
  7  8  1  0
  8  9  1  0
  9 10  1  0
 10 25  1  0
 10 11  1  0
 10 31  1  6
 11 12  2  0
 11 13  1  0
 13 14  1  0
 13 16  1  0
 13 32  1  6
 14 15  1  0
 14 33  1  0
 14 34  1  0
 15 35  1  0
 16 17  1  0
 16 36  1  0
 16 37  1  0
 17 25  1  0
 17 18  1  6
 17 19  1  0
 18 38  1  0
 19 20  1  0
 19 21  1  0
 19 39  1  1
 20 40  1  0
 20 41  1  0
 21 22  1  0
 21 23  1  0
 21 49  1  6
 22 42  1  0
 22 43  1  0
 22 44  1  0
 23 24  1  0
 23 45  1  0
 23 46  1  0
 25 24  1  6
 24 47  1  0
 24 48  1  0
M  CHG  1  21   1
M  END
>  <i_m_ct_stereo_status>  (19) 
1

>  <s_m_source_file>  (19) 
/var/tmp/pbs.5076255.sched01/tmp6mkrr40i/0ze8ciewu.sdf

>  <i_m_source_file_index>  (19) 
11

>  <i_lp_mmshare_version>  (19) 
48012

>  <i_f3d_flags>  (19) 
0

>  <s_epik_input>  (19) 
W0NAXTEyM2M0YzVbY0hdW2NIXWMoT1tDSDNdKWM0T1tDQEhdMUMoPU8pW0NAQEhdKFtDSDJdW09IXSlbQ0gyXVtDQEBdMihbT0hdKVtDQEBIXShbQ0gyXTUpTihbQ0gzXSlbQ0gyXVtDSDJdMw==

>  <s_epik_cmdline>  (19) 
J2VwaWtfcHl0aG9uJywgJy1waHQnLCAnMi4wJywgJy1waCcsICc3LjAnLCAnLXRuJywgJzgnLCAnLW1hJywgJzIwMCcsICctaW1hZScsICc8aW5maWxlLm1hZT4nLCAnLW9tYWUnLCAnPG91dGZpbGUubWFlPic=

>  <r_lp_tautomer_probability>  (19) 
1

>  <r_epik_Ionization_Penalty>  (19) 
0.115436

>  <r_epik_Ionization_Penalty_Charging>  (19) 
0.115435

>  <r_epik_Ionization_Penalty_Neutral>  (19) 
6.24243e-07

>  <r_epik_State_Penalty>  (19) 
0.105072

>  <r_epik_Charging_Adjusted_Penalty>  (19) 
0.220507

>  <i_epik_Tot_Q>  (19) 
1

>  <i_epik_Tot_abs_Q>  (19) 
1

>  <s_lp_Force_Field>  (19) 
OPLS3e

>  <r_lp_Energy>  (19) 
54.9423

>  <b_lp_Chiralities_Consistent>  (19) 
1

>  <s_lp_Variant>  (19) 
8:0-1

>  <s_i_glide_gridfile>  (19) 
pfpi4k_grid

>  <i_i_glide_lignum>  (19) 
11

>  <i_i_glide_rotatable_bonds>  (19) 
4

>  <r_i_docking_score>  (19) 
-3.81744

>  <r_i_glide_ligand_efficiency>  (19) 
-0.152697

>  <r_i_glide_ligand_efficiency_sa>  (19) 
-0.44649

>  <r_i_glide_ligand_efficiency_ln>  (19) 
-0.904847

>  <r_i_glide_gscore>  (19) 
-3.81744

>  <r_i_glide_lipo>  (19) 
-0.132589

>  <r_i_glide_hbond>  (19) 
-0.308885

>  <r_i_glide_metal>  (19) 
-0

>  <r_i_glide_rewards>  (19) 
-1.54729

>  <r_i_glide_evdw>  (19) 
-16.3742

>  <r_i_glide_ecoul>  (19) 
-7.09599

>  <r_i_glide_erotb>  (19) 
0.158442

>  <r_i_glide_esite>  (19) 
-0.104009

>  <r_i_glide_emodel>  (19) 
-37.8153

>  <r_i_glide_energy>  (19) 
-23.4702

>  <r_i_glide_einternal>  (19) 
0.0495777

>  <r_i_glide_intrahb_reward>  (19) 
-0.5

>  <i_i_glide_confnum>  (19) 
1

>  <i_i_glide_posenum>  (19) 
19

>  <r_i_glide_eff_state_penalty>  (19) 
0

>  <ligand_id>  (19) 
8

>  <original_smiles>  (19) 
COc1ccc2c3c1OC1C(=O)C(CO)CC4(O)C(C2)N(C)CCC314

>  <smiles>  (19) 
[H]OC([H])([H])C1([H])C(=O)C2([H])Oc3c(OC([H])([H])[H])c([H])c([H])c4c3C23C([H])([H])C([H])([H])[N+]([H])(C([H])([H])[H])C([H])(C4([H])[H])C3(O[H])C1([H])[H]

$$$$
8:1:0
     RDKit          3D

 48 52  0  0  1  0  0  0  0  0999 V2000
   -0.0675    0.6144   10.8389 C   0  0  0  0  0  0  0  0  0  0  0  0
   -0.5853    0.5458    9.5207 O   0  0  0  0  0  0  0  0  0  0  0  0
    0.2918    0.5233    8.4624 C   0  0  0  0  0  0  0  0  0  0  0  0
    1.7121    0.5415    8.5952 C   0  0  0  0  0  0  0  0  0  0  0  0
    2.5572    0.5514    7.4607 C   0  0  0  0  0  0  0  0  0  0  0  0
    2.0005    0.4850    6.1711 C   0  0  0  0  0  0  0  0  0  0  0  0
    0.6010    0.4059    6.1055 C   0  0  0  0  0  0  0  0  0  0  0  0
   -0.2731    0.4846    7.1677 C   0  0  0  0  0  0  0  0  0  0  0  0
   -1.5922    0.5403    6.7833 O   0  0  0  0  0  0  0  0  0  0  0  0
   -1.5883    0.8285    5.3639 C   0  0  1  0  0  0  0  0  0  0  0  0
   -1.6648    2.3579    5.1897 C   0  0  0  0  0  0  0  0  0  0  0  0
   -2.2649    3.0431    6.0210 O   0  0  0  0  0  0  0  0  0  0  0  0
   -0.9878    2.9858    3.9543 C   0  0  1  0  0  0  0  0  0  0  0  0
   -0.9815    4.5398    3.9602 C   0  0  0  0  0  0  0  0  0  0  0  0
   -1.7461    5.0190    2.8766 O   0  0  0  0  0  0  0  0  0  0  0  0
    0.4355    2.4089    3.7509 C   0  0  0  0  0  0  0  0  0  0  0  0
    0.4448    0.8656    3.6448 C   0  0  1  0  0  0  0  0  0  0  0  0
   -0.2822    0.6002    2.4560 O   0  0  0  0  0  0  0  0  0  0  0  0
    1.8672    0.2082    3.5777 C   0  0  1  0  0  0  0  0  0  0  0  0
    2.7122    0.5674    4.8224 C   0  0  0  0  0  0  0  0  0  0  0  0
    1.8442   -1.2625    3.4226 N   0  0  0  0  0  0  0  0  0  0  0  0
    1.7256   -1.7357    2.0535 C   0  0  0  0  0  0  0  0  0  0  0  0
    0.9728   -1.9641    4.3749 C   0  0  0  0  0  0  0  0  0  0  0  0
   -0.3964   -1.2946    4.5877 C   0  0  0  0  0  0  0  0  0  0  0  0
   -0.2398    0.2225    4.8700 C   0  0  1  0  0  0  0  0  0  0  0  0
   -0.9000    0.6218   11.5375 H   0  0  0  0  0  0  0  0  0  0  0  0
    0.5037    1.5285   10.9916 H   0  0  0  0  0  0  0  0  0  0  0  0
    0.5542   -0.2489   11.0722 H   0  0  0  0  0  0  0  0  0  0  0  0
    2.1715    0.5656    9.5701 H   0  0  0  0  0  0  0  0  0  0  0  0
    3.6286    0.6139    7.5818 H   0  0  0  0  0  0  0  0  0  0  0  0
   -2.4474    0.3853    4.8542 H   0  0  0  0  0  0  0  0  0  0  0  0
   -1.6019    2.6589    3.1158 H   0  0  0  0  0  0  0  0  0  0  0  0
   -1.4000    4.9684    4.8694 H   0  0  0  0  0  0  0  0  0  0  0  0
    0.0332    4.9433    3.8886 H   0  0  0  0  0  0  0  0  0  0  0  0
   -1.2296    4.8829    2.0851 H   0  0  0  0  0  0  0  0  0  0  0  0
    0.8712    2.8460    2.8504 H   0  0  0  0  0  0  0  0  0  0  0  0
    1.0568    2.7462    4.5811 H   0  0  0  0  0  0  0  0  0  0  0  0
    0.1442    1.0294    1.7249 H   0  0  0  0  0  0  0  0  0  0  0  0
    2.4038    0.6235    2.7229 H   0  0  0  0  0  0  0  0  0  0  0  0
    3.0819    1.5844    4.7121 H   0  0  0  0  0  0  0  0  0  0  0  0
    3.5956   -0.0712    4.8548 H   0  0  0  0  0  0  0  0  0  0  0  0
    1.9277   -2.8051    1.9993 H   0  0  0  0  0  0  0  0  0  0  0  0
    2.4533   -1.2427    1.4092 H   0  0  0  0  0  0  0  0  0  0  0  0
    0.7337   -1.5563    1.6466 H   0  0  0  0  0  0  0  0  0  0  0  0
    0.8265   -2.9957    4.0575 H   0  0  0  0  0  0  0  0  0  0  0  0
    1.4790   -2.0301    5.3406 H   0  0  0  0  0  0  0  0  0  0  0  0
   -1.0068   -1.4448    3.7008 H   0  0  0  0  0  0  0  0  0  0  0  0
   -0.9214   -1.7950    5.4060 H   0  0  0  0  0  0  0  0  0  0  0  0
  1  2  1  0
  1 26  1  0
  1 27  1  0
  1 28  1  0
  2  3  1  0
  3  8  2  0
  3  4  1  0
  4  5  2  0
  4 29  1  0
  5  6  1  0
  5 30  1  0
  6 20  1  0
  6  7  2  0
  7 25  1  0
  7  8  1  0
  8  9  1  0
  9 10  1  0
 10 25  1  0
 10 11  1  0
 10 31  1  6
 11 12  2  0
 11 13  1  0
 13 14  1  0
 13 16  1  0
 13 32  1  6
 14 15  1  0
 14 33  1  0
 14 34  1  0
 15 35  1  0
 16 17  1  0
 16 36  1  0
 16 37  1  0
 17 25  1  0
 17 18  1  6
 17 19  1  0
 18 38  1  0
 19 20  1  0
 19 21  1  0
 19 39  1  6
 20 40  1  0
 20 41  1  0
 21 22  1  0
 21 23  1  0
 22 42  1  0
 22 43  1  0
 22 44  1  0
 23 24  1  0
 23 45  1  0
 23 46  1  0
 25 24  1  6
 24 47  1  0
 24 48  1  0
M  END
>  <i_m_ct_stereo_status>  (20) 
1

>  <s_m_source_file>  (20) 
/var/tmp/pbs.5076255.sched01/tmp6mkrr40i/0ze8ciewu.sdf

>  <i_m_source_file_index>  (20) 
12

>  <i_lp_mmshare_version>  (20) 
48012

>  <i_f3d_flags>  (20) 
0

>  <s_epik_input>  (20) 
W0NAXTEyM2M0YzVbY0hdW2NIXWMoT1tDSDNdKWM0T1tDQEhdMUMoPU8pW0NAQEhdKFtDSDJdW09IXSlbQ0gyXVtDQEBdMihbT0hdKVtDQEBIXShbQ0gyXTUpTihbQ0gzXSlbQ0gyXVtDSDJdMw==

>  <s_epik_cmdline>  (20) 
J2VwaWtfcHl0aG9uJywgJy1waHQnLCAnMi4wJywgJy1waCcsICc3LjAnLCAnLXRuJywgJzgnLCAnLW1hJywgJzIwMCcsICctaW1hZScsICc8aW5maWxlLm1hZT4nLCAnLW9tYWUnLCAnPG91dGZpbGUubWFlPic=

>  <r_lp_tautomer_probability>  (20) 
1

>  <r_epik_Ionization_Penalty>  (20) 
1.02586

>  <r_epik_Ionization_Penalty_Charging>  (20) 
0

>  <r_epik_Ionization_Penalty_Neutral>  (20) 
1.02586

>  <r_epik_State_Penalty>  (20) 
1.07657

>  <r_epik_Charging_Adjusted_Penalty>  (20) 
1.07657

>  <i_epik_Tot_Q>  (20) 
0

>  <i_epik_Tot_abs_Q>  (20) 
0

>  <s_lp_Force_Field>  (20) 
OPLS3e

>  <r_lp_Energy>  (20) 
54.4032

>  <b_lp_Chiralities_Consistent>  (20) 
1

>  <s_lp_Variant>  (20) 
8:0-2

>  <s_i_glide_gridfile>  (20) 
pfpi4k_grid

>  <i_i_glide_lignum>  (20) 
12

>  <i_i_glide_rotatable_bonds>  (20) 
4

>  <r_i_docking_score>  (20) 
-3.85166

>  <r_i_glide_ligand_efficiency>  (20) 
-0.154066

>  <r_i_glide_ligand_efficiency_sa>  (20) 
-0.450493

>  <r_i_glide_ligand_efficiency_ln>  (20) 
-0.912959

>  <r_i_glide_gscore>  (20) 
-3.85166

>  <r_i_glide_lipo>  (20) 
-0.00575619

>  <r_i_glide_hbond>  (20) 
-0.48

>  <r_i_glide_metal>  (20) 
-0

>  <r_i_glide_rewards>  (20) 
-1.05416

>  <r_i_glide_evdw>  (20) 
-16.1535

>  <r_i_glide_ecoul>  (20) 
-11.0791

>  <r_i_glide_erotb>  (20) 
0.159264

>  <r_i_glide_esite>  (20) 
-0.00146803

>  <r_i_glide_emodel>  (20) 
-33.3698

>  <r_i_glide_energy>  (20) 
-27.2326

>  <r_i_glide_einternal>  (20) 
3.93624

>  <r_i_glide_intrahb_reward>  (20) 
-0

>  <i_i_glide_confnum>  (20) 
2

>  <i_i_glide_posenum>  (20) 
21

>  <r_i_glide_eff_state_penalty>  (20) 
0

>  <ligand_id>  (20) 
8

>  <original_smiles>  (20) 
COc1ccc2c3c1OC1C(=O)C(CO)CC4(O)C(C2)N(C)CCC314

>  <smiles>  (20) 
[H]OC([H])([H])C1([H])C(=O)C2([H])Oc3c(OC([H])([H])[H])c([H])c([H])c4c3C23C([H])([H])C([H])([H])N(C([H])([H])[H])C([H])(C4([H])[H])C3(O[H])C1([H])[H]

$$$$
8:1:1
     RDKit          3D

 48 52  0  0  1  0  0  0  0  0999 V2000
    3.7782   -5.3935    8.5655 C   0  0  0  0  0  0  0  0  0  0  0  0
    3.1400   -5.2353    7.3113 O   0  0  0  0  0  0  0  0  0  0  0  0
    2.8041   -6.3687    6.6025 C   0  0  0  0  0  0  0  0  0  0  0  0
    3.0464   -7.7015    7.0538 C   0  0  0  0  0  0  0  0  0  0  0  0
    2.7059   -8.8262    6.2547 C   0  0  0  0  0  0  0  0  0  0  0  0
    2.0647   -8.6351    5.0153 C   0  0  0  0  0  0  0  0  0  0  0  0
    1.8043   -7.3040    4.6582 C   0  0  0  0  0  0  0  0  0  0  0  0
    2.1879   -6.1718    5.3496 C   0  0  0  0  0  0  0  0  0  0  0  0
    1.9307   -5.0086    4.6695 O   0  0  0  0  0  0  0  0  0  0  0  0
    1.6448   -5.3932    3.3043 C   0  0  1  0  0  0  0  0  0  0  0  0
    2.9613   -5.3643    2.4987 C   0  0  0  0  0  0  0  0  0  0  0  0
    3.8588   -4.5838    2.8115 O   0  0  0  0  0  0  0  0  0  0  0  0
    3.1051   -6.3252    1.3015 C   0  0  1  0  0  0  0  0  0  0  0  0
    4.5208   -6.3043    0.6725 C   0  0  0  0  0  0  0  0  0  0  0  0
    4.6921   -5.1767   -0.1707 O   0  0  0  0  0  0  0  0  0  0  0  0
    2.6793   -7.7539    1.7254 C   0  0  0  0  0  0  0  0  0  0  0  0
    1.2306   -7.8045    2.2670 C   0  0  1  0  0  0  0  0  0  0  0  0
    0.4183   -7.4363    1.1595 O   0  0  0  0  0  0  0  0  0  0  0  0
    0.7771   -9.2005    2.8151 C   0  0  1  0  0  0  0  0  0  0  0  0
    1.6882   -9.6817    3.9670 C   0  0  0  0  0  0  0  0  0  0  0  0
   -0.6277   -9.2180    3.2672 N   0  0  0  0  0  0  0  0  0  0  0  0
   -1.6227   -9.4818    2.2465 C   0  0  0  0  0  0  0  0  0  0  0  0
   -0.9895   -8.1514    4.2037 C   0  0  0  0  0  0  0  0  0  0  0  0
   -0.4626   -6.7678    3.7912 C   0  0  0  0  0  0  0  0  0  0  0  0
    1.0510   -6.8276    3.4467 C   0  0  1  0  0  0  0  0  0  0  0  0
    3.9720   -4.4091    8.9848 H   0  0  0  0  0  0  0  0  0  0  0  0
    4.7346   -5.9044    8.4627 H   0  0  0  0  0  0  0  0  0  0  0  0
    3.1489   -5.9351    9.2707 H   0  0  0  0  0  0  0  0  0  0  0  0
    3.5094   -7.8922    8.0061 H   0  0  0  0  0  0  0  0  0  0  0  0
    2.9344   -9.8277    6.5922 H   0  0  0  0  0  0  0  0  0  0  0  0
    0.9463   -4.6965    2.8408 H   0  0  0  0  0  0  0  0  0  0  0  0
    2.4052   -5.9811    0.5424 H   0  0  0  0  0  0  0  0  0  0  0  0
    5.2970   -6.3037    1.4408 H   0  0  0  0  0  0  0  0  0  0  0  0
    4.6904   -7.1945    0.0679 H   0  0  0  0  0  0  0  0  0  0  0  0
    4.1217   -5.2621   -0.9239 H   0  0  0  0  0  0  0  0  0  0  0  0
    2.7706   -8.4430    0.8856 H   0  0  0  0  0  0  0  0  0  0  0  0
    3.3866   -8.1199    2.4689 H   0  0  0  0  0  0  0  0  0  0  0  0
    0.2693   -8.2171    0.6357 H   0  0  0  0  0  0  0  0  0  0  0  0
    0.8799   -9.9461    2.0274 H   0  0  0  0  0  0  0  0  0  0  0  0
    2.6119  -10.0644    3.5438 H   0  0  0  0  0  0  0  0  0  0  0  0
    1.2247  -10.5291    4.4715 H   0  0  0  0  0  0  0  0  0  0  0  0
   -2.5792   -9.7095    2.7101 H   0  0  0  0  0  0  0  0  0  0  0  0
   -1.3408  -10.3634    1.6754 H   0  0  0  0  0  0  0  0  0  0  0  0
   -1.7671   -8.6433    1.5665 H   0  0  0  0  0  0  0  0  0  0  0  0
   -2.0729   -8.1140    4.3189 H   0  0  0  0  0  0  0  0  0  0  0  0
   -0.6051   -8.3950    5.1939 H   0  0  0  0  0  0  0  0  0  0  0  0
   -1.0315   -6.4371    2.9267 H   0  0  0  0  0  0  0  0  0  0  0  0
   -0.6616   -6.0446    4.5863 H   0  0  0  0  0  0  0  0  0  0  0  0
  1  2  1  0
  1 26  1  0
  1 27  1  0
  1 28  1  0
  2  3  1  0
  3  8  2  0
  3  4  1  0
  4  5  2  0
  4 29  1  0
  5  6  1  0
  5 30  1  0
  6 20  1  0
  6  7  2  0
  7 25  1  0
  7  8  1  0
  8  9  1  0
  9 10  1  0
 10 25  1  0
 10 11  1  0
 10 31  1  6
 11 12  2  0
 11 13  1  0
 13 14  1  0
 13 16  1  0
 13 32  1  6
 14 15  1  0
 14 33  1  0
 14 34  1  0
 15 35  1  0
 16 17  1  0
 16 36  1  0
 16 37  1  0
 17 25  1  0
 17 18  1  6
 17 19  1  0
 18 38  1  0
 19 20  1  0
 19 21  1  0
 19 39  1  6
 20 40  1  0
 20 41  1  0
 21 22  1  0
 21 23  1  0
 22 42  1  0
 22 43  1  0
 22 44  1  0
 23 24  1  0
 23 45  1  0
 23 46  1  0
 25 24  1  1
 24 47  1  0
 24 48  1  0
M  END
>  <i_m_ct_stereo_status>  (21) 
1

>  <s_m_source_file>  (21) 
/var/tmp/pbs.5076255.sched01/tmp6mkrr40i/0ze8ciewu.sdf

>  <i_m_source_file_index>  (21) 
12

>  <i_lp_mmshare_version>  (21) 
48012

>  <i_f3d_flags>  (21) 
0

>  <s_epik_input>  (21) 
W0NAXTEyM2M0YzVbY0hdW2NIXWMoT1tDSDNdKWM0T1tDQEhdMUMoPU8pW0NAQEhdKFtDSDJdW09IXSlbQ0gyXVtDQEBdMihbT0hdKVtDQEBIXShbQ0gyXTUpTihbQ0gzXSlbQ0gyXVtDSDJdMw==

>  <s_epik_cmdline>  (21) 
J2VwaWtfcHl0aG9uJywgJy1waHQnLCAnMi4wJywgJy1waCcsICc3LjAnLCAnLXRuJywgJzgnLCAnLW1hJywgJzIwMCcsICctaW1hZScsICc8aW5maWxlLm1hZT4nLCAnLW9tYWUnLCAnPG91dGZpbGUubWFlPic=

>  <r_lp_tautomer_probability>  (21) 
1

>  <r_epik_Ionization_Penalty>  (21) 
1.02586

>  <r_epik_Ionization_Penalty_Charging>  (21) 
0

>  <r_epik_Ionization_Penalty_Neutral>  (21) 
1.02586

>  <r_epik_State_Penalty>  (21) 
1.07657

>  <r_epik_Charging_Adjusted_Penalty>  (21) 
1.07657

>  <i_epik_Tot_Q>  (21) 
0

>  <i_epik_Tot_abs_Q>  (21) 
0

>  <s_lp_Force_Field>  (21) 
OPLS3e

>  <r_lp_Energy>  (21) 
54.4032

>  <b_lp_Chiralities_Consistent>  (21) 
1

>  <s_lp_Variant>  (21) 
8:0-2

>  <s_i_glide_gridfile>  (21) 
pfpi4k_grid

>  <i_i_glide_lignum>  (21) 
12

>  <i_i_glide_rotatable_bonds>  (21) 
4

>  <r_i_docking_score>  (21) 
-3.40533

>  <r_i_glide_ligand_efficiency>  (21) 
-0.136213

>  <r_i_glide_ligand_efficiency_sa>  (21) 
-0.39829

>  <r_i_glide_ligand_efficiency_ln>  (21) 
-0.807166

>  <r_i_glide_gscore>  (21) 
-3.40533

>  <r_i_glide_lipo>  (21) 
-0.418162

>  <r_i_glide_hbond>  (21) 
-0.310869

>  <r_i_glide_metal>  (21) 
-0

>  <r_i_glide_rewards>  (21) 
-1.05416

>  <r_i_glide_evdw>  (21) 
-19.8275

>  <r_i_glide_ecoul>  (21) 
-5.25241

>  <r_i_glide_erotb>  (21) 
0.159264

>  <r_i_glide_esite>  (21) 
-0.00216879

>  <r_i_glide_emodel>  (21) 
-31.8137

>  <r_i_glide_energy>  (21) 
-25.0799

>  <r_i_glide_einternal>  (21) 
0.62617

>  <r_i_glide_intrahb_reward>  (21) 
-0

>  <i_i_glide_confnum>  (21) 
1

>  <i_i_glide_posenum>  (21) 
3

>  <r_i_glide_eff_state_penalty>  (21) 
0

>  <ligand_id>  (21) 
8

>  <original_smiles>  (21) 
COc1ccc2c3c1OC1C(=O)C(CO)CC4(O)C(C2)N(C)CCC314

>  <smiles>  (21) 
[H]OC([H])([H])C1([H])C(=O)C2([H])Oc3c(OC([H])([H])[H])c([H])c([H])c4c3C23C([H])([H])C([H])([H])N(C([H])([H])[H])C([H])(C4([H])[H])C3(O[H])C1([H])[H]

$$$$
8:1:2
     RDKit          3D

 48 52  0  0  1  0  0  0  0  0999 V2000
   -0.1514    0.7319   10.4101 C   0  0  0  0  0  0  0  0  0  0  0  0
   -0.5332    0.6746    9.0456 O   0  0  0  0  0  0  0  0  0  0  0  0
    0.4530    0.8127    8.0927 C   0  0  0  0  0  0  0  0  0  0  0  0
    1.8283    1.0595    8.3859 C   0  0  0  0  0  0  0  0  0  0  0  0
    2.7922    1.2213    7.3554 C   0  0  0  0  0  0  0  0  0  0  0  0
    2.4048    1.0802    6.0097 C   0  0  0  0  0  0  0  0  0  0  0  0
    1.0469    0.7837    5.7911 C   0  0  0  0  0  0  0  0  0  0  0  0
    0.0540    0.7036    6.7414 C   0  0  0  0  0  0  0  0  0  0  0  0
   -1.2050    0.5513    6.2071 O   0  0  0  0  0  0  0  0  0  0  0  0
   -1.0804    0.8699    4.7974 C   0  0  1  0  0  0  0  0  0  0  0  0
   -1.3696    2.3730    4.6025 C   0  0  0  0  0  0  0  0  0  0  0  0
   -2.1398    2.9606    5.3638 O   0  0  0  0  0  0  0  0  0  0  0  0
   -0.6722    3.1062    3.4401 C   0  0  1  0  0  0  0  0  0  0  0  0
   -0.9142    4.6341    3.4553 C   0  0  0  0  0  0  0  0  0  0  0  0
   -2.1708    4.9378    2.8791 O   0  0  0  0  0  0  0  0  0  0  0  0
    0.8387    2.7701    3.4216 C   0  0  0  0  0  0  0  0  0  0  0  0
    1.1030    1.2469    3.3254 C   0  0  1  0  0  0  0  0  0  0  0  0
    0.5527    0.8843    2.0722 O   0  0  0  0  0  0  0  0  0  0  0  0
    2.6115    0.8215    3.4148 C   0  0  1  0  0  0  0  0  0  0  0  0
    3.2423    1.2903    4.7466 C   0  0  0  0  0  0  0  0  0  0  0  0
    2.8382   -0.6328    3.2612 N   0  0  0  0  0  0  0  0  0  0  0  0
    2.9484   -1.1065    1.8900 C   0  0  0  0  0  0  0  0  0  0  0  0
    1.9920   -1.4707    4.1212 C   0  0  0  0  0  0  0  0  0  0  0  0
    0.5176   -1.0314    4.1760 C   0  0  0  0  0  0  0  0  0  0  0  0
    0.3963    0.4885    4.4669 C   0  0  1  0  0  0  0  0  0  0  0  0
   -1.0293    0.6185   11.0389 H   0  0  0  0  0  0  0  0  0  0  0  0
    0.3025    1.6887   10.6617 H   0  0  0  0  0  0  0  0  0  0  0  0
    0.5336   -0.0762   10.6605 H   0  0  0  0  0  0  0  0  0  0  0  0
    2.1732    1.1452    9.4027 H   0  0  0  0  0  0  0  0  0  0  0  0
    3.8187    1.4531    7.5966 H   0  0  0  0  0  0  0  0  0  0  0  0
   -1.7982    0.3074    4.1983 H   0  0  0  0  0  0  0  0  0  0  0  0
   -1.1044    2.7081    2.5222 H   0  0  0  0  0  0  0  0  0  0  0  0
   -0.8631    5.0408    4.4670 H   0  0  0  0  0  0  0  0  0  0  0  0
   -0.1574    5.1606    2.8762 H   0  0  0  0  0  0  0  0  0  0  0  0
   -2.1043    4.6879    1.9633 H   0  0  0  0  0  0  0  0  0  0  0  0
    1.3050    3.2734    2.5711 H   0  0  0  0  0  0  0  0  0  0  0  0
    1.2986    3.1938    4.3158 H   0  0  0  0  0  0  0  0  0  0  0  0
    0.8597    1.4850    1.4070 H   0  0  0  0  0  0  0  0  0  0  0  0
    3.1684    1.3288    2.6253 H   0  0  0  0  0  0  0  0  0  0  0  0
    3.4571    2.3530    4.6701 H   0  0  0  0  0  0  0  0  0  0  0  0
    4.2089    0.8031    4.8779 H   0  0  0  0  0  0  0  0  0  0  0  0
    3.3264   -2.1286    1.8710 H   0  0  0  0  0  0  0  0  0  0  0  0
    3.6615   -0.5000    1.3320 H   0  0  0  0  0  0  0  0  0  0  0  0
    1.9947   -1.0905    1.3643 H   0  0  0  0  0  0  0  0  0  0  0  0
    2.0475   -2.5096    3.7961 H   0  0  0  0  0  0  0  0  0  0  0  0
    2.3905   -1.4665    5.1368 H   0  0  0  0  0  0  0  0  0  0  0  0
    0.0407   -1.2717    3.2290 H   0  0  0  0  0  0  0  0  0  0  0  0
   -0.0108   -1.6222    4.9275 H   0  0  0  0  0  0  0  0  0  0  0  0
  1  2  1  0
  1 26  1  0
  1 27  1  0
  1 28  1  0
  2  3  1  0
  3  8  2  0
  3  4  1  0
  4  5  2  0
  4 29  1  0
  5  6  1  0
  5 30  1  0
  6 20  1  0
  6  7  2  0
  7 25  1  0
  7  8  1  0
  8  9  1  0
  9 10  1  0
 10 25  1  0
 10 11  1  0
 10 31  1  6
 11 12  2  0
 11 13  1  0
 13 14  1  0
 13 16  1  0
 13 32  1  6
 14 15  1  0
 14 33  1  0
 14 34  1  0
 15 35  1  0
 16 17  1  0
 16 36  1  0
 16 37  1  0
 17 25  1  0
 17 18  1  6
 17 19  1  0
 18 38  1  0
 19 20  1  0
 19 21  1  0
 19 39  1  6
 20 40  1  0
 20 41  1  0
 21 22  1  0
 21 23  1  0
 22 42  1  0
 22 43  1  0
 22 44  1  0
 23 24  1  0
 23 45  1  0
 23 46  1  0
 25 24  1  6
 24 47  1  0
 24 48  1  0
M  END
>  <i_m_ct_stereo_status>  (22) 
1

>  <s_m_source_file>  (22) 
/var/tmp/pbs.5076255.sched01/tmp6mkrr40i/0ze8ciewu.sdf

>  <i_m_source_file_index>  (22) 
12

>  <i_lp_mmshare_version>  (22) 
48012

>  <i_f3d_flags>  (22) 
0

>  <s_epik_input>  (22) 
W0NAXTEyM2M0YzVbY0hdW2NIXWMoT1tDSDNdKWM0T1tDQEhdMUMoPU8pW0NAQEhdKFtDSDJdW09IXSlbQ0gyXVtDQEBdMihbT0hdKVtDQEBIXShbQ0gyXTUpTihbQ0gzXSlbQ0gyXVtDSDJdMw==

>  <s_epik_cmdline>  (22) 
J2VwaWtfcHl0aG9uJywgJy1waHQnLCAnMi4wJywgJy1waCcsICc3LjAnLCAnLXRuJywgJzgnLCAnLW1hJywgJzIwMCcsICctaW1hZScsICc8aW5maWxlLm1hZT4nLCAnLW9tYWUnLCAnPG91dGZpbGUubWFlPic=

>  <r_lp_tautomer_probability>  (22) 
1

>  <r_epik_Ionization_Penalty>  (22) 
1.02586

>  <r_epik_Ionization_Penalty_Charging>  (22) 
0

>  <r_epik_Ionization_Penalty_Neutral>  (22) 
1.02586

>  <r_epik_State_Penalty>  (22) 
1.07657

>  <r_epik_Charging_Adjusted_Penalty>  (22) 
1.07657

>  <i_epik_Tot_Q>  (22) 
0

>  <i_epik_Tot_abs_Q>  (22) 
0

>  <s_lp_Force_Field>  (22) 
OPLS3e

>  <r_lp_Energy>  (22) 
54.4032

>  <b_lp_Chiralities_Consistent>  (22) 
1

>  <s_lp_Variant>  (22) 
8:0-2

>  <s_i_glide_gridfile>  (22) 
pfpi4k_grid

>  <i_i_glide_lignum>  (22) 
12

>  <i_i_glide_rotatable_bonds>  (22) 
4

>  <r_i_docking_score>  (22) 
-3.18562

>  <r_i_glide_ligand_efficiency>  (22) 
-0.127425

>  <r_i_glide_ligand_efficiency_sa>  (22) 
-0.372592

>  <r_i_glide_ligand_efficiency_ln>  (22) 
-0.755087

>  <r_i_glide_gscore>  (22) 
-3.18562

>  <r_i_glide_lipo>  (22) 
0

>  <r_i_glide_hbond>  (22) 
-0.00340566

>  <r_i_glide_metal>  (22) 
-0

>  <r_i_glide_rewards>  (22) 
-1.05416

>  <r_i_glide_evdw>  (22) 
-17.4104

>  <r_i_glide_ecoul>  (22) 
-9.33115

>  <r_i_glide_erotb>  (22) 
0.159264

>  <r_i_glide_esite>  (22) 
-0.0171215

>  <r_i_glide_emodel>  (22) 
-33.0694

>  <r_i_glide_energy>  (22) 
-26.7415

>  <r_i_glide_einternal>  (22) 
0.723306

>  <r_i_glide_intrahb_reward>  (22) 
-0

>  <i_i_glide_confnum>  (22) 
1

>  <i_i_glide_posenum>  (22) 
23

>  <r_i_glide_eff_state_penalty>  (22) 
0

>  <ligand_id>  (22) 
8

>  <original_smiles>  (22) 
COc1ccc2c3c1OC1C(=O)C(CO)CC4(O)C(C2)N(C)CCC314

>  <smiles>  (22) 
[H]OC([H])([H])C1([H])C(=O)C2([H])Oc3c(OC([H])([H])[H])c([H])c([H])c4c3C23C([H])([H])C([H])([H])N(C([H])([H])[H])C([H])(C4([H])[H])C3(O[H])C1([H])[H]

$$$$
9:0:0
     RDKit          3D

101108  0  0  1  0  0  0  0  0999 V2000
    2.4909    5.2578    2.5285 C   0  0  0  0  0  0  0  0  0  0  0  0
    2.4852    3.7730    2.9589 C   0  0  0  0  0  0  0  0  0  0  0  0
    1.9388    3.3514    4.3921 C   0  0  1  0  0  0  0  0  0  0  0  0
    2.8872    3.9433    5.4504 C   0  0  0  0  0  0  0  0  0  0  0  0
    2.3877    3.7342    6.8826 C   0  0  1  0  0  0  0  0  0  0  0  0
    2.9653    4.8121    7.8262 C   0  0  0  0  0  0  0  0  0  0  0  0
    0.8365    3.5934    6.9557 C   0  0  1  0  0  0  0  0  0  0  0  0
    0.0988    4.3997    5.8767 C   0  0  1  0  0  0  0  0  0  0  0  0
    0.5594    4.0610    4.4711 C   0  0  0  0  0  0  0  0  0  0  0  0
   -1.3202    4.3316    5.8628 O   0  0  0  0  0  0  0  0  0  0  0  0
   -1.9970    3.2459    6.2362 C   0  0  0  0  0  0  0  0  0  0  0  0
   -3.1458    3.0270    5.8703 O   0  0  0  0  0  0  0  0  0  0  0  0
   -1.2750    2.3921    7.2806 C   0  0  1  0  0  0  0  0  0  0  0  0
   -2.1760    1.3660    8.0144 C   0  0  0  0  0  0  0  0  0  0  0  0
    0.2686    2.1464    6.9983 C   0  0  2  0  0  0  0  0  0  0  0  0
    0.7769    1.5500    8.2842 C   0  0  0  0  0  0  0  0  0  0  0  0
    1.4429    0.4252    8.1347 C   0  0  0  0  0  0  0  0  0  0  0  0
    1.6146    0.0259    6.7018 C   0  0  2  0  0  0  0  0  0  0  0  0
    1.1247   -1.4681    6.7138 C   0  0  0  0  0  0  0  0  0  0  0  0
    3.1582    0.1506    6.5771 C   0  0  0  0  0  0  0  0  0  0  0  0
    3.9187   -0.3901    7.3615 O   0  0  0  0  0  0  0  0  0  0  0  0
    3.6067    0.6131    5.4109 O   0  0  0  0  0  0  0  0  0  0  0  0
    2.8655    0.7643    4.2186 C   0  0  1  0  0  0  0  0  0  0  0  0
    4.0601    1.3663    3.4458 C   0  0  0  0  0  0  0  0  0  0  0  0
    2.3770   -0.5170    3.3932 C   0  0  1  0  0  0  0  0  0  0  0  0
    2.9998   -1.9491    3.6003 C   0  0  2  0  0  0  0  0  0  0  0  0
    3.9027   -2.0403    4.8177 C   0  0  0  0  0  0  0  0  0  0  0  0
    4.5131   -3.3422    5.1966 C   0  0  0  0  0  0  0  0  0  0  0  0
    5.3526   -3.8157    4.0546 C   0  0  0  0  0  0  0  0  0  0  0  0
    4.5456   -3.7852    2.8085 C   0  0  0  0  0  0  0  0  0  0  0  0
    4.4283   -4.8729    2.2502 O   0  0  0  0  0  0  0  0  0  0  0  0
    3.8239   -2.4698    2.3965 C   0  0  2  0  0  0  0  0  0  0  0  0
    4.8758   -1.4369    1.9458 C   0  0  0  0  0  0  0  0  0  0  0  0
    5.0170   -1.4822    0.4439 C   0  0  0  0  0  0  0  0  0  0  0  0
    3.9255   -2.4407   -0.0585 C   0  0  0  0  0  0  0  0  0  0  0  0
    3.2066   -1.8979   -1.2871 C   0  0  0  0  0  0  0  0  0  0  0  0
    4.5737   -3.7565   -0.4792 C   0  0  0  0  0  0  0  0  0  0  0  0
    2.9654   -2.6471    1.1280 C   0  0  1  0  0  0  0  0  0  0  0  0
    2.3271   -3.9011    1.0837 O   0  0  0  0  0  0  0  0  0  0  0  0
    0.9243   -0.4945    2.9141 C   0  0  0  0  0  0  0  0  0  0  0  0
    0.6457   -0.2882    1.7357 O   0  0  0  0  0  0  0  0  0  0  0  0
   -0.1974   -0.6417    3.9080 C   0  0  0  0  0  0  0  0  0  0  0  0
   -0.4069    0.4434    5.0168 C   0  0  1  0  0  0  0  0  0  0  0  0
   -1.2976   -0.1910    5.9031 O   0  0  0  0  0  0  0  0  0  0  0  0
   -2.5727   -0.4910    5.3533 C   0  0  0  0  0  0  0  0  0  0  0  0
    0.8012    1.1202    5.8161 C   0  0  1  0  0  0  0  0  0  0  0  0
    1.7130    1.7750    4.6041 C   0  0  1  0  0  0  0  0  0  0  0  0
    3.1489    5.3769    1.7074 H   0  0  0  0  0  0  0  0  0  0  0  0
    2.8818    5.9362    3.2878 H   0  0  0  0  0  0  0  0  0  0  0  0
    1.5136    5.6064    2.1952 H   0  0  0  0  0  0  0  0  0  0  0  0
    2.0120    3.1963    2.1604 H   0  0  0  0  0  0  0  0  0  0  0  0
    3.5448    3.6067    2.8802 H   0  0  0  0  0  0  0  0  0  0  0  0
    3.9174    3.5930    5.3652 H   0  0  0  0  0  0  0  0  0  0  0  0
    2.9404    5.0096    5.2560 H   0  0  0  0  0  0  0  0  0  0  0  0
    2.8252    2.8061    7.2319 H   0  0  0  0  0  0  0  0  0  0  0  0
    2.6043    5.8131    7.5862 H   0  0  0  0  0  0  0  0  0  0  0  0
    4.0559    4.8386    7.7737 H   0  0  0  0  0  0  0  0  0  0  0  0
    2.7061    4.6073    8.8653 H   0  0  0  0  0  0  0  0  0  0  0  0
    0.5628    4.0692    7.8988 H   0  0  0  0  0  0  0  0  0  0  0  0
    0.3114    5.4520    6.0584 H   0  0  0  0  0  0  0  0  0  0  0  0
    0.5582    5.0377    4.0029 H   0  0  0  0  0  0  0  0  0  0  0  0
   -0.1930    3.5089    3.9052 H   0  0  0  0  0  0  0  0  0  0  0  0
   -1.2384    3.1072    8.0965 H   0  0  0  0  0  0  0  0  0  0  0  0
   -2.6083    1.7897    8.9199 H   0  0  0  0  0  0  0  0  0  0  0  0
   -1.6079    0.5080    8.3396 H   0  0  0  0  0  0  0  0  0  0  0  0
   -3.0208    1.0346    7.4209 H   0  0  0  0  0  0  0  0  0  0  0  0
    0.5859    2.0046    9.2435 H   0  0  0  0  0  0  0  0  0  0  0  0
    1.8709   -0.1511    8.9450 H   0  0  0  0  0  0  0  0  0  0  0  0
    1.7371   -2.1056    7.3535 H   0  0  0  0  0  0  0  0  0  0  0  0
    1.1302   -1.9566    5.7485 H   0  0  0  0  0  0  0  0  0  0  0  0
    0.1179   -1.5771    7.1154 H   0  0  0  0  0  0  0  0  0  0  0  0
    3.7956    1.5867    2.4133 H   0  0  0  0  0  0  0  0  0  0  0  0
    4.9758    0.7503    3.4107 H   0  0  0  0  0  0  0  0  0  0  0  0
    4.5130    2.1730    3.9527 H   0  0  0  0  0  0  0  0  0  0  0  0
    2.6996   -0.3144    2.3804 H   0  0  0  0  0  0  0  0  0  0  0  0
    2.1714   -2.6461    3.7531 H   0  0  0  0  0  0  0  0  0  0  0  0
    4.6966   -1.2951    4.7829 H   0  0  0  0  0  0  0  0  0  0  0  0
    3.2320   -1.9662    5.6292 H   0  0  0  0  0  0  0  0  0  0  0  0
    5.1223   -3.2062    6.0905 H   0  0  0  0  0  0  0  0  0  0  0  0
    3.7246   -4.0456    5.4216 H   0  0  0  0  0  0  0  0  0  0  0  0
    6.2113   -3.1987    3.8466 H   0  0  0  0  0  0  0  0  0  0  0  0
    5.6404   -4.8478    4.2307 H   0  0  0  0  0  0  0  0  0  0  0  0
    4.5008   -0.4564    2.0087 H   0  0  0  0  0  0  0  0  0  0  0  0
    5.7941   -1.4088    2.5304 H   0  0  0  0  0  0  0  0  0  0  0  0
    4.9128   -0.4781    0.0102 H   0  0  0  0  0  0  0  0  0  0  0  0
    6.0153   -1.8312    0.2171 H   0  0  0  0  0  0  0  0  0  0  0  0
    2.3907   -2.5664   -1.5671 H   0  0  0  0  0  0  0  0  0  0  0  0
    3.8944   -1.8342   -2.1266 H   0  0  0  0  0  0  0  0  0  0  0  0
    2.7997   -0.9044   -1.1159 H   0  0  0  0  0  0  0  0  0  0  0  0
    3.8289   -4.4772   -0.8127 H   0  0  0  0  0  0  0  0  0  0  0  0
    5.1589   -4.2067    0.2940 H   0  0  0  0  0  0  0  0  0  0  0  0
    5.3422   -3.6171   -1.2182 H   0  0  0  0  0  0  0  0  0  0  0  0
    2.1637   -1.9289    1.0755 H   0  0  0  0  0  0  0  0  0  0  0  0
    3.0616   -4.5112    1.0999 H   0  0  0  0  0  0  0  0  0  0  0  0
   -1.0892   -0.6291    3.2840 H   0  0  0  0  0  0  0  0  0  0  0  0
   -0.1769   -1.6493    4.3052 H   0  0  0  0  0  0  0  0  0  0  0  0
   -0.9404    1.2619    4.5362 H   0  0  0  0  0  0  0  0  0  0  0  0
   -3.0791   -0.7377    6.2437 H   0  0  0  0  0  0  0  0  0  0  0  0
   -2.6328   -1.2969    4.6348 H   0  0  0  0  0  0  0  0  0  0  0  0
   -2.9590    0.3737    4.8671 H   0  0  0  0  0  0  0  0  0  0  0  0
    1.0810    1.7509    3.7343 H   0  0  0  0  0  0  0  0  0  0  0  0
  1  2  1  0
  1 48  1  0
  1 49  1  0
  1 50  1  0
  3  2  1  6
  2 51  1  0
  2 52  1  0
  3  9  1  0
  3 47  1  0
  3  4  1  0
  4  5  1  0
  4 53  1  0
  4 54  1  0
  5  6  1  0
  5  7  1  0
  5 55  1  1
  6 56  1  0
  6 57  1  0
  6 58  1  0
  7 15  1  0
  7  8  1  0
  7 59  1  1
  8  9  1  0
  8 10  1  0
  8 60  1  1
  9 61  1  0
  9 62  1  0
 10 11  1  0
 11 12  2  0
 11 13  1  0
 13 14  1  0
 13 15  1  0
 13 63  1  1
 14 64  1  0
 14 65  1  0
 14 66  1  0
 15 46  1  0
 15 16  1  1
 16 17  2  0
 16 67  1  0
 17 18  1  0
 17 68  1  0
 46 18  1  1
 18 19  1  1
 18 20  1  0
 19 69  1  0
 19 70  1  0
 19 71  1  0
 20 21  2  0
 20 22  1  0
 22 23  1  0
 23 47  1  0
 23 24  1  6
 23 25  1  0
 24 72  1  0
 24 73  1  0
 24 74  1  0
 25 26  1  0
 25 40  1  0
 25 75  1  6
 26 32  1  0
 26 27  1  0
 26 76  1  1
 27 28  1  0
 27 77  1  0
 27 78  1  0
 28 29  1  0
 28 79  1  0
 28 80  1  0
 29 30  1  0
 29 81  1  0
 29 82  1  0
 30 31  2  0
 30 32  1  0
 32 38  1  0
 32 33  1  6
 33 34  1  0
 33 83  1  0
 33 84  1  0
 34 35  1  0
 34 85  1  0
 34 86  1  0
 35 36  1  0
 35 37  1  0
 35 38  1  0
 36 87  1  0
 36 88  1  0
 36 89  1  0
 37 90  1  0
 37 91  1  0
 37 92  1  0
 38 39  1  0
 38 93  1  1
 39 94  1  0
 40 41  2  0
 40 42  1  0
 42 43  1  0
 42 95  1  0
 42 96  1  0
 43 44  1  0
 43 46  1  0
 43 97  1  6
 44 45  1  0
 45 98  1  0
 45 99  1  0
 45100  1  0
 46 47  1  0
 47101  1  6
M  END
>  <i_m_ct_stereo_status>  (23) 
1

>  <s_m_source_file>  (23) 
/var/tmp/pbs.5076255.sched01/tmp6mkrr40i/0ze8ciewu.sdf

>  <i_m_source_file_index>  (23) 
13

>  <i_lp_mmshare_version>  (23) 
48012

>  <i_f3d_flags>  (23) 
0

>  <s_epik_input>  (23) 
W0NIM11bQ0BASF0xQyg9TylPW0NASF0oW0NIMl0yKVtDQEBIXTNbQ0BIXShbQ0gzXSlbQ0gyXVtDQEBdMihbQ0gyXVtDSDNdKVtDQEhdNFtDQEBdKFtDSDNdKShPQyg9TylbQ0BdKFtDSDNdKShbQ0BAXTQ1W0NAXTEzNilbQ0hdPVtDSF02KVtDQEhdKEMoPU8pW0NIMl1bQ0BIXTVPW0NIM10pW0NASF0oW0NIMl1bQ0gyXVtDSDJdQzc9TylbQ0BAXTc4W0NIMl1bQ0gyXUMoW0NIM10pKFtDSDNdKVtDQEhdOFtPSF0=

>  <s_epik_cmdline>  (23) 
J2VwaWtfcHl0aG9uJywgJy1waHQnLCAnMi4wJywgJy1waCcsICc3LjAnLCAnLXRuJywgJzgnLCAnLW1hJywgJzIwMCcsICctaW1hZScsICc8aW5maWxlLm1hZT4nLCAnLW9tYWUnLCAnPG91dGZpbGUubWFlPic=

>  <r_lp_tautomer_probability>  (23) 
1

>  <r_epik_Ionization_Penalty>  (23) 
1.01033e-07

>  <r_epik_Ionization_Penalty_Charging>  (23) 
0

>  <r_epik_Ionization_Penalty_Neutral>  (23) 
1.01033e-07

>  <r_epik_State_Penalty>  (23) 
-0

>  <r_epik_Charging_Adjusted_Penalty>  (23) 
0

>  <i_epik_Tot_Q>  (23) 
0

>  <i_epik_Tot_abs_Q>  (23) 
0

>  <s_epik_Chemistry_Notes>  (23) 
This compound has an ester and may undergo hydrolysis at high or low pH.

>  <s_lp_Force_Field>  (23) 
OPLS3e

>  <r_lp_Energy>  (23) 
161.004

>  <b_lp_Chiralities_Consistent>  (23) 
1

>  <s_lp_Variant>  (23) 
9:0-1

>  <s_i_glide_gridfile>  (23) 
pfpi4k_grid

>  <i_i_glide_lignum>  (23) 
13

>  <i_i_glide_rotatable_bonds>  (23) 
4

>  <r_i_docking_score>  (23) 
0.729228

>  <r_i_glide_ligand_efficiency>  (23) 
0.0155155

>  <r_i_glide_ligand_efficiency_sa>  (23) 
0.0559927

>  <r_i_glide_ligand_efficiency_ln>  (23) 
0.150352

>  <r_i_glide_gscore>  (23) 
0.729228

>  <r_i_glide_lipo>  (23) 
-0.167381

>  <r_i_glide_hbond>  (23) 
-0.0430171

>  <r_i_glide_metal>  (23) 
-0

>  <r_i_glide_rewards>  (23) 
-0.60987

>  <r_i_glide_evdw>  (23) 
1.23393

>  <r_i_glide_ecoul>  (23) 
-1.71745

>  <r_i_glide_erotb>  (23) 
0.0501352

>  <r_i_glide_esite>  (23) 
-0.0271804

>  <r_i_glide_emodel>  (23) 
4.23815

>  <r_i_glide_energy>  (23) 
-0.483515

>  <r_i_glide_einternal>  (23) 
2.79423

>  <r_i_glide_intrahb_reward>  (23) 
-0.5

>  <i_i_glide_confnum>  (23) 
1

>  <i_i_glide_posenum>  (23) 
2

>  <r_i_glide_eff_state_penalty>  (23) 
0

>  <ligand_id>  (23) 
9

>  <original_smiles>  (23) 
CCC12CC(C)C3C(C1)OC(=O)C(C)C31C=CC3(C)C(=O)OC4(C)C(C5CCCC(=O)C56CCC(C)(C)C6O)C(=O)CC(OC)C31C24

>  <smiles>  (23) 
[H]OC1([H])C2(C(=O)C([H])([H])C([H])([H])C([H])([H])C2([H])C2([H])C(=O)C([H])([H])C([H])(OC([H])([H])[H])C34C5(C([H])([H])[H])C(=O)OC2(C([H])([H])[H])C3([H])C2(C([H])([H])C([H])([H])[H])C([H])([H])C3([H])OC(=O)C([H])(C([H])([H])[H])C4(C([H])=C5[H])C3([H])C([H])(C([H])([H])[H])C2([H])[H])C([H])([H])C([H])([H])C1(C([H])([H])[H])C([H])([H])[H]

$$$$
9:0:1
     RDKit          3D

101108  0  0  1  0  0  0  0  0999 V2000
    5.1598    3.5244    5.6989 C   0  0  0  0  0  0  0  0  0  0  0  0
    4.2586    2.3785    5.1687 C   0  0  0  0  0  0  0  0  0  0  0  0
    2.7401    2.2446    5.6320 C   0  0  1  0  0  0  0  0  0  0  0  0
    2.7367    1.9005    7.1307 C   0  0  0  0  0  0  0  0  0  0  0  0
    1.3322    1.8898    7.7412 C   0  0  1  0  0  0  0  0  0  0  0  0
    1.3955    2.1659    9.2601 C   0  0  0  0  0  0  0  0  0  0  0  0
    0.3423    2.8141    6.9700 C   0  0  1  0  0  0  0  0  0  0  0  0
    1.0177    4.0436    6.3422 C   0  0  1  0  0  0  0  0  0  0  0  0
    2.1688    3.6731    5.4212 C   0  0  0  0  0  0  0  0  0  0  0  0
    0.1864    4.9540    5.6314 O   0  0  0  0  0  0  0  0  0  0  0  0
   -0.8483    4.5379    4.9196 C   0  0  0  0  0  0  0  0  0  0  0  0
   -1.2927    5.1160    3.9357 O   0  0  0  0  0  0  0  0  0  0  0  0
   -1.5419    3.3293    5.5097 C   0  0  1  0  0  0  0  0  0  0  0  0
   -2.9793    3.1649    4.9839 C   0  0  0  0  0  0  0  0  0  0  0  0
   -0.5713    2.1347    5.9137 C   0  0  2  0  0  0  0  0  0  0  0  0
   -1.4483    1.1907    6.6896 C   0  0  0  0  0  0  0  0  0  0  0  0
   -1.3827   -0.0443    6.2655 C   0  0  0  0  0  0  0  0  0  0  0  0
   -0.4030   -0.2704    5.1883 C   0  0  2  0  0  0  0  0  0  0  0  0
   -1.2788   -1.0303    4.1615 C   0  0  0  0  0  0  0  0  0  0  0  0
    0.6093   -1.1951    5.8888 C   0  0  0  0  0  0  0  0  0  0  0  0
    0.2465   -2.2152    6.4887 O   0  0  0  0  0  0  0  0  0  0  0  0
    1.8941   -1.0086    5.5905 O   0  0  0  0  0  0  0  0  0  0  0  0
    2.4084   -0.2375    4.5160 C   0  0  1  0  0  0  0  0  0  0  0  0
    3.8938   -0.5035    4.8901 C   0  0  0  0  0  0  0  0  0  0  0  0
    2.2063   -0.7420    3.0027 C   0  0  1  0  0  0  0  0  0  0  0  0
    1.8604   -2.2345    2.6346 C   0  0  2  0  0  0  0  0  0  0  0  0
    1.4690   -3.0725    3.8371 C   0  0  0  0  0  0  0  0  0  0  0  0
    1.0810   -4.4948    3.6746 C   0  0  0  0  0  0  0  0  0  0  0  0
    2.1927   -5.2529    3.0365 C   0  0  0  0  0  0  0  0  0  0  0  0
    2.6143   -4.5220    1.8099 C   0  0  0  0  0  0  0  0  0  0  0  0
    2.4903   -5.1655    0.7802 O   0  0  0  0  0  0  0  0  0  0  0  0
    2.9915   -3.0063    1.9124 C   0  0  2  0  0  0  0  0  0  0  0  0
    4.3235   -2.8941    2.6808 C   0  0  0  0  0  0  0  0  0  0  0  0
    5.4697   -2.8133    1.7010 C   0  0  0  0  0  0  0  0  0  0  0  0
    4.8333   -2.7128    0.3086 C   0  0  0  0  0  0  0  0  0  0  0  0
    5.5128   -1.6624   -0.5654 C   0  0  0  0  0  0  0  0  0  0  0  0
    4.9938   -4.0540   -0.4077 C   0  0  0  0  0  0  0  0  0  0  0  0
    3.3487   -2.3973    0.5434 C   0  0  1  0  0  0  0  0  0  0  0  0
    2.5471   -2.8496   -0.5246 O   0  0  0  0  0  0  0  0  0  0  0  0
    1.7353    0.3034    1.9950 C   0  0  0  0  0  0  0  0  0  0  0  0
    2.5365    0.7793    1.2021 O   0  0  0  0  0  0  0  0  0  0  0  0
    0.3224    0.8209    2.0366 C   0  0  0  0  0  0  0  0  0  0  0  0
   -0.1775    1.6046    3.3008 C   0  0  1  0  0  0  0  0  0  0  0  0
   -1.5833    1.6332    3.2043 O   0  0  0  0  0  0  0  0  0  0  0  0
   -2.0947    2.2770    2.0968 C   0  0  0  0  0  0  0  0  0  0  0  0
    0.1967    1.1863    4.7956 C   0  0  1  0  0  0  0  0  0  0  0  0
    1.8444    1.2135    4.7828 C   0  0  1  0  0  0  0  0  0  0  0  0
    6.2261    3.3157    5.5981 H   0  0  0  0  0  0  0  0  0  0  0  0
    5.0822    3.6572    6.7698 H   0  0  0  0  0  0  0  0  0  0  0  0
    4.9692    4.4729    5.1991 H   0  0  0  0  0  0  0  0  0  0  0  0
    4.3229    2.3685    4.0810 H   0  0  0  0  0  0  0  0  0  0  0  0
    4.8604    1.5580    5.5228 H   0  0  0  0  0  0  0  0  0  0  0  0
    3.2485    0.9662    7.3695 H   0  0  0  0  0  0  0  0  0  0  0  0
    3.3224    2.6711    7.6218 H   0  0  0  0  0  0  0  0  0  0  0  0
    0.9688    0.8720    7.6671 H   0  0  0  0  0  0  0  0  0  0  0  0
    1.7523    3.1713    9.4884 H   0  0  0  0  0  0  0  0  0  0  0  0
    2.0646    1.4633    9.7626 H   0  0  0  0  0  0  0  0  0  0  0  0
    0.4158    2.0507    9.7249 H   0  0  0  0  0  0  0  0  0  0  0  0
   -0.3122    3.2193    7.7437 H   0  0  0  0  0  0  0  0  0  0  0  0
    1.4145    4.6464    7.1555 H   0  0  0  0  0  0  0  0  0  0  0  0
    2.8868    4.4500    5.6532 H   0  0  0  0  0  0  0  0  0  0  0  0
    1.9333    3.8491    4.3693 H   0  0  0  0  0  0  0  0  0  0  0  0
   -1.8506    3.6969    6.4807 H   0  0  0  0  0  0  0  0  0  0  0  0
   -3.7503    3.5392    5.6603 H   0  0  0  0  0  0  0  0  0  0  0  0
   -3.1541    2.1357    4.8923 H   0  0  0  0  0  0  0  0  0  0  0  0
   -3.1965    3.5004    3.9752 H   0  0  0  0  0  0  0  0  0  0  0  0
   -2.0751    1.5166    7.5034 H   0  0  0  0  0  0  0  0  0  0  0  0
   -1.9288   -0.8803    6.6416 H   0  0  0  0  0  0  0  0  0  0  0  0
   -1.6339   -2.0030    4.4990 H   0  0  0  0  0  0  0  0  0  0  0  0
   -0.6673   -1.2424    3.2860 H   0  0  0  0  0  0  0  0  0  0  0  0
   -2.1827   -0.5003    3.8319 H   0  0  0  0  0  0  0  0  0  0  0  0
    4.5921   -0.0125    4.2031 H   0  0  0  0  0  0  0  0  0  0  0  0
    4.1873   -1.5460    4.9661 H   0  0  0  0  0  0  0  0  0  0  0  0
    4.1185   -0.2757    5.9223 H   0  0  0  0  0  0  0  0  0  0  0  0
    3.1984   -0.6758    2.5761 H   0  0  0  0  0  0  0  0  0  0  0  0
    1.0104   -2.2099    1.9539 H   0  0  0  0  0  0  0  0  0  0  0  0
    2.2354   -3.0523    4.6054 H   0  0  0  0  0  0  0  0  0  0  0  0
    0.5224   -2.6928    4.1004 H   0  0  0  0  0  0  0  0  0  0  0  0
    0.7871   -4.9164    4.6354 H   0  0  0  0  0  0  0  0  0  0  0  0
    0.2070   -4.5102    3.0278 H   0  0  0  0  0  0  0  0  0  0  0  0
    3.0667   -5.4218    3.6447 H   0  0  0  0  0  0  0  0  0  0  0  0
    1.7855   -6.1936    2.6885 H   0  0  0  0  0  0  0  0  0  0  0  0
    4.4513   -1.9358    3.1025 H   0  0  0  0  0  0  0  0  0  0  0  0
    4.4376   -3.5666    3.5327 H   0  0  0  0  0  0  0  0  0  0  0  0
    6.1146   -1.9532    1.9212 H   0  0  0  0  0  0  0  0  0  0  0  0
    6.0648   -3.7072    1.8272 H   0  0  0  0  0  0  0  0  0  0  0  0
    4.9873   -1.5794   -1.5168 H   0  0  0  0  0  0  0  0  0  0  0  0
    6.5352   -1.9741   -0.7720 H   0  0  0  0  0  0  0  0  0  0  0  0
    5.5335   -0.6815   -0.0951 H   0  0  0  0  0  0  0  0  0  0  0  0
    4.5197   -4.0407   -1.3913 H   0  0  0  0  0  0  0  0  0  0  0  0
    4.5911   -4.8805    0.1405 H   0  0  0  0  0  0  0  0  0  0  0  0
    6.0205   -4.3740   -0.4642 H   0  0  0  0  0  0  0  0  0  0  0  0
    3.2060   -1.3284    0.5258 H   0  0  0  0  0  0  0  0  0  0  0  0
    1.8749   -2.1979   -0.7258 H   0  0  0  0  0  0  0  0  0  0  0  0
    0.2744    1.5038    1.1866 H   0  0  0  0  0  0  0  0  0  0  0  0
   -0.3421    0.0143    1.7585 H   0  0  0  0  0  0  0  0  0  0  0  0
    0.1790    2.6260    3.1717 H   0  0  0  0  0  0  0  0  0  0  0  0
   -3.1704    2.3873    1.9795 H   0  0  0  0  0  0  0  0  0  0  0  0
   -1.8853    1.5713    1.2976 H   0  0  0  0  0  0  0  0  0  0  0  0
   -1.6632    3.2625    1.8712 H   0  0  0  0  0  0  0  0  0  0  0  0
    2.1018    1.7318    3.8766 H   0  0  0  0  0  0  0  0  0  0  0  0
  1  2  1  0
  1 48  1  0
  1 49  1  0
  1 50  1  0
  3  2  1  6
  2 51  1  0
  2 52  1  0
  3  9  1  0
  3 47  1  0
  3  4  1  0
  4  5  1  0
  4 53  1  0
  4 54  1  0
  5  6  1  0
  5  7  1  0
  5 55  1  1
  6 56  1  0
  6 57  1  0
  6 58  1  0
  7 15  1  0
  7  8  1  0
  7 59  1  1
  8  9  1  0
  8 10  1  0
  8 60  1  1
  9 61  1  0
  9 62  1  0
 10 11  1  0
 11 12  2  0
 11 13  1  0
 13 14  1  0
 13 15  1  0
 13 63  1  1
 14 64  1  0
 14 65  1  0
 14 66  1  0
 15 46  1  0
 15 16  1  1
 16 17  2  0
 16 67  1  0
 17 18  1  0
 17 68  1  0
 46 18  1  1
 18 19  1  6
 18 20  1  0
 19 69  1  0
 19 70  1  0
 19 71  1  0
 20 21  2  0
 20 22  1  0
 22 23  1  0
 23 47  1  0
 23 24  1  1
 23 25  1  0
 24 72  1  0
 24 73  1  0
 24 74  1  0
 25 26  1  0
 25 40  1  0
 25 75  1  6
 26 32  1  0
 26 27  1  0
 26 76  1  6
 27 28  1  0
 27 77  1  0
 27 78  1  0
 28 29  1  0
 28 79  1  0
 28 80  1  0
 29 30  1  0
 29 81  1  0
 29 82  1  0
 30 31  2  0
 30 32  1  0
 32 38  1  0
 32 33  1  1
 33 34  1  0
 33 83  1  0
 33 84  1  0
 34 35  1  0
 34 85  1  0
 34 86  1  0
 35 36  1  0
 35 37  1  0
 35 38  1  0
 36 87  1  0
 36 88  1  0
 36 89  1  0
 37 90  1  0
 37 91  1  0
 37 92  1  0
 38 39  1  0
 38 93  1  1
 39 94  1  0
 40 41  2  0
 40 42  1  0
 42 43  1  0
 42 95  1  0
 42 96  1  0
 43 44  1  0
 43 46  1  0
 43 97  1  6
 44 45  1  0
 45 98  1  0
 45 99  1  0
 45100  1  0
 46 47  1  0
 47101  1  6
M  END
>  <i_m_ct_stereo_status>  (24) 
1

>  <s_m_source_file>  (24) 
/var/tmp/pbs.5076255.sched01/tmp6mkrr40i/0ze8ciewu.sdf

>  <i_m_source_file_index>  (24) 
13

>  <i_lp_mmshare_version>  (24) 
48012

>  <i_f3d_flags>  (24) 
0

>  <s_epik_input>  (24) 
W0NIM11bQ0BASF0xQyg9TylPW0NASF0oW0NIMl0yKVtDQEBIXTNbQ0BIXShbQ0gzXSlbQ0gyXVtDQEBdMihbQ0gyXVtDSDNdKVtDQEhdNFtDQEBdKFtDSDNdKShPQyg9TylbQ0BdKFtDSDNdKShbQ0BAXTQ1W0NAXTEzNilbQ0hdPVtDSF02KVtDQEhdKEMoPU8pW0NIMl1bQ0BIXTVPW0NIM10pW0NASF0oW0NIMl1bQ0gyXVtDSDJdQzc9TylbQ0BAXTc4W0NIMl1bQ0gyXUMoW0NIM10pKFtDSDNdKVtDQEhdOFtPSF0=

>  <s_epik_cmdline>  (24) 
J2VwaWtfcHl0aG9uJywgJy1waHQnLCAnMi4wJywgJy1waCcsICc3LjAnLCAnLXRuJywgJzgnLCAnLW1hJywgJzIwMCcsICctaW1hZScsICc8aW5maWxlLm1hZT4nLCAnLW9tYWUnLCAnPG91dGZpbGUubWFlPic=

>  <r_lp_tautomer_probability>  (24) 
1

>  <r_epik_Ionization_Penalty>  (24) 
1.01033e-07

>  <r_epik_Ionization_Penalty_Charging>  (24) 
0

>  <r_epik_Ionization_Penalty_Neutral>  (24) 
1.01033e-07

>  <r_epik_State_Penalty>  (24) 
-0

>  <r_epik_Charging_Adjusted_Penalty>  (24) 
0

>  <i_epik_Tot_Q>  (24) 
0

>  <i_epik_Tot_abs_Q>  (24) 
0

>  <s_epik_Chemistry_Notes>  (24) 
This compound has an ester and may undergo hydrolysis at high or low pH.

>  <s_lp_Force_Field>  (24) 
OPLS3e

>  <r_lp_Energy>  (24) 
161.004

>  <b_lp_Chiralities_Consistent>  (24) 
1

>  <s_lp_Variant>  (24) 
9:0-1

>  <s_i_glide_gridfile>  (24) 
pfpi4k_grid

>  <i_i_glide_lignum>  (24) 
13

>  <i_i_glide_rotatable_bonds>  (24) 
4

>  <r_i_docking_score>  (24) 
1.25632

>  <r_i_glide_ligand_efficiency>  (24) 
0.0267302

>  <r_i_glide_ligand_efficiency_sa>  (24) 
0.0964645

>  <r_i_glide_ligand_efficiency_ln>  (24) 
0.259027

>  <r_i_glide_gscore>  (24) 
1.25632

>  <r_i_glide_lipo>  (24) 
-0.163492

>  <r_i_glide_hbond>  (24) 
-0.128863

>  <r_i_glide_metal>  (24) 
-0

>  <r_i_glide_rewards>  (24) 
0

>  <r_i_glide_evdw>  (24) 
1.55821

>  <r_i_glide_ecoul>  (24) 
-7.33338

>  <r_i_glide_erotb>  (24) 
0.0501352

>  <r_i_glide_esite>  (24) 
-0.126644

>  <r_i_glide_emodel>  (24) 
7.45024

>  <r_i_glide_energy>  (24) 
-5.77517

>  <r_i_glide_einternal>  (24) 
4.45767

>  <r_i_glide_intrahb_reward>  (24) 
-0

>  <i_i_glide_confnum>  (24) 
1

>  <i_i_glide_posenum>  (24) 
6

>  <r_i_glide_eff_state_penalty>  (24) 
0

>  <ligand_id>  (24) 
9

>  <original_smiles>  (24) 
CCC12CC(C)C3C(C1)OC(=O)C(C)C31C=CC3(C)C(=O)OC4(C)C(C5CCCC(=O)C56CCC(C)(C)C6O)C(=O)CC(OC)C31C24

>  <smiles>  (24) 
[H]OC1([H])C2(C(=O)C([H])([H])C([H])([H])C([H])([H])C2([H])C2([H])C(=O)C([H])([H])C([H])(OC([H])([H])[H])C34C5(C([H])([H])[H])C(=O)OC2(C([H])([H])[H])C3([H])C2(C([H])([H])C([H])([H])[H])C([H])([H])C3([H])OC(=O)C([H])(C([H])([H])[H])C4(C([H])=C5[H])C3([H])C([H])(C([H])([H])[H])C2([H])[H])C([H])([H])C([H])([H])C1(C([H])([H])[H])C([H])([H])[H]

$$$$
10:0:0
     RDKit          3D

 91100  0  0  1  0  0  0  0  0999 V2000
    3.6047   -1.7155   -3.1236 C   0  0  0  0  0  0  0  0  0  0  0  0
    2.7425   -2.9180   -2.6760 C   0  0  0  0  0  0  0  0  0  0  0  0
    2.5358   -3.0151   -1.2714 O   0  0  0  0  0  0  0  0  0  0  0  0
    3.5790   -3.4817   -0.4984 C   0  0  2  0  0  0  0  0  0  0  0  0
    3.5091   -4.8293   -0.4144 O   0  0  0  0  0  0  0  0  0  0  0  0
    4.7288   -5.3638    0.2561 O   0  0  0  0  0  0  0  0  0  0  0  0
    4.5778   -5.0611    1.6165 C   0  0  1  0  0  0  0  0  0  0  0  0
    4.5213   -3.4967    1.6453 C   0  0  1  0  0  0  0  0  0  0  0  0
    5.8144   -2.6818    1.3774 C   0  0  0  0  0  0  0  0  0  0  0  0
    6.8872   -3.2934    0.4502 C   0  0  0  0  0  0  0  0  0  0  0  0
    7.7645   -4.3347    1.1456 C   0  0  0  0  0  0  0  0  0  0  0  0
    7.1173   -5.6871    1.4655 C   0  0  1  0  0  0  0  0  0  0  0  0
    8.2463   -6.4940    2.1121 C   0  0  0  0  0  0  0  0  0  0  0  0
    7.8094   -7.8703    2.5913 C   0  0  0  0  0  0  0  0  0  0  0  0
    6.7094   -7.7149    3.6398 C   0  0  1  0  0  0  0  0  0  0  0  0
    7.2737   -7.0842    4.9385 C   0  0  0  0  0  0  0  0  0  0  0  0
    5.4999   -6.9736    3.0087 C   0  0  1  0  0  0  0  0  0  0  0  0
    4.3162   -6.8881    4.0063 C   0  0  0  0  0  0  0  0  0  0  0  0
    3.2379   -5.8374    3.6662 C   0  0  2  0  0  0  0  0  0  0  0  0
    1.8086   -6.1739    4.1852 C   0  0  1  0  0  0  0  0  0  0  0  0
    1.0539   -7.2689    3.3678 C   0  0  1  0  0  0  0  0  0  0  0  0
    1.7359   -7.6910    2.0697 C   0  0  0  0  0  0  0  0  0  0  0  0
    2.7072   -6.9350    1.5040 C   0  0  0  0  0  0  0  0  0  0  0  0
    3.2084   -5.6462    2.1486 C   0  0  2  0  0  0  0  0  0  0  0  0
    0.5336   -8.3786    4.3843 C   0  0  1  0  0  0  0  0  0  0  0  0
    1.4131   -9.6504    4.4652 C   0  0  0  0  0  0  0  0  0  0  0  0
    0.4220   -7.5011    5.6594 C   0  0  2  0  0  0  0  0  0  0  0  0
    1.7086   -6.7138    5.6243 C   0  0  2  0  0  0  0  0  0  0  0  0
    1.7193   -5.9050    6.9529 C   0  0  1  0  0  0  0  0  0  0  0  0
    3.1174   -6.1326    7.5987 C   0  0  0  0  0  0  0  0  0  0  0  0
    1.4457   -4.3728    6.9741 C   0  0  1  0  0  0  0  0  0  0  0  0
    0.3348   -4.0099    6.1743 O   0  0  0  0  0  0  0  0  0  0  0  0
    1.1674   -3.8879    8.4024 C   0  0  1  0  0  0  0  0  0  0  0  0
   -0.1901   -4.0674    8.8782 O   0  0  0  0  0  0  0  0  0  0  0  0
    0.8006   -4.8537    9.5505 C   0  0  1  0  0  0  0  0  0  0  0  0
    0.6478   -6.3112    9.2469 C   0  0  0  0  0  0  0  0  0  0  0  0
    0.4886   -7.1700   10.1096 O   0  0  0  0  0  0  0  0  0  0  0  0
    0.5634   -6.5753    7.7355 C   0  0  2  0  0  0  0  0  0  0  0  0
    0.2638   -7.9265    7.1157 C   0  0  1  0  0  0  0  0  0  0  0  0
   -0.4254   -9.1151    7.6867 C   0  0  0  0  0  0  0  0  0  0  0  0
    1.0240   -9.0560    7.5235 O   0  0  0  0  0  0  0  0  0  0  0  0
    5.8386   -5.6052    2.3650 C   0  0  2  0  0  0  0  0  0  0  0  0
    3.5200   -2.9615    0.7703 O   0  0  0  0  0  0  0  0  0  0  0  0
    3.6697   -1.6552   -4.2104 H   0  0  0  0  0  0  0  0  0  0  0  0
    4.6291   -1.7419   -2.7561 H   0  0  0  0  0  0  0  0  0  0  0  0
    3.1602   -0.7805   -2.7844 H   0  0  0  0  0  0  0  0  0  0  0  0
    1.7501   -2.7644   -3.0948 H   0  0  0  0  0  0  0  0  0  0  0  0
    3.0859   -3.8553   -3.1062 H   0  0  0  0  0  0  0  0  0  0  0  0
    4.4940   -3.1629   -0.9539 H   0  0  0  0  0  0  0  0  0  0  0  0
    4.1768   -3.2048    2.6407 H   0  0  0  0  0  0  0  0  0  0  0  0
    5.5006   -1.7155    0.9675 H   0  0  0  0  0  0  0  0  0  0  0  0
    6.2607   -2.4500    2.3427 H   0  0  0  0  0  0  0  0  0  0  0  0
    6.4973   -3.6913   -0.4885 H   0  0  0  0  0  0  0  0  0  0  0  0
    7.5407   -2.4690    0.1551 H   0  0  0  0  0  0  0  0  0  0  0  0
    8.6311   -4.4922    0.4995 H   0  0  0  0  0  0  0  0  0  0  0  0
    8.1815   -3.9582    2.0676 H   0  0  0  0  0  0  0  0  0  0  0  0
    6.9097   -6.1797    0.5165 H   0  0  0  0  0  0  0  0  0  0  0  0
    8.9952   -6.6083    1.3303 H   0  0  0  0  0  0  0  0  0  0  0  0
    8.7212   -5.9424    2.9302 H   0  0  0  0  0  0  0  0  0  0  0  0
    7.4359   -8.4470    1.7456 H   0  0  0  0  0  0  0  0  0  0  0  0
    8.6554   -8.4285    2.9890 H   0  0  0  0  0  0  0  0  0  0  0  0
    6.3800   -8.7256    3.9099 H   0  0  0  0  0  0  0  0  0  0  0  0
    7.4524   -6.0096    4.8342 H   0  0  0  0  0  0  0  0  0  0  0  0
    8.2238   -7.5543    5.2079 H   0  0  0  0  0  0  0  0  0  0  0  0
    6.6015   -7.2369    5.7849 H   0  0  0  0  0  0  0  0  0  0  0  0
    5.1907   -7.6336    2.1932 H   0  0  0  0  0  0  0  0  0  0  0  0
    3.8584   -7.8738    4.0854 H   0  0  0  0  0  0  0  0  0  0  0  0
    4.6865   -6.6555    5.0017 H   0  0  0  0  0  0  0  0  0  0  0  0
    3.5308   -4.8934    4.1094 H   0  0  0  0  0  0  0  0  0  0  0  0
    1.2069   -5.2696    4.1127 H   0  0  0  0  0  0  0  0  0  0  0  0
    0.1272   -6.8011    3.0298 H   0  0  0  0  0  0  0  0  0  0  0  0
    1.3402   -8.5822    1.6115 H   0  0  0  0  0  0  0  0  0  0  0  0
    3.1508   -7.1983    0.5685 H   0  0  0  0  0  0  0  0  0  0  0  0
    2.4308   -4.9294    1.8778 H   0  0  0  0  0  0  0  0  0  0  0  0
   -0.4722   -8.7197    4.1063 H   0  0  0  0  0  0  0  0  0  0  0  0
    2.4435   -9.4464    4.7484 H   0  0  0  0  0  0  0  0  0  0  0  0
    1.4342  -10.1536    3.4941 H   0  0  0  0  0  0  0  0  0  0  0  0
    1.0034  -10.3683    5.1793 H   0  0  0  0  0  0  0  0  0  0  0  0
   -0.4132   -6.8257    5.4664 H   0  0  0  0  0  0  0  0  0  0  0  0
    2.4962   -7.4602    5.7526 H   0  0  0  0  0  0  0  0  0  0  0  0
    3.2434   -5.6431    8.5689 H   0  0  0  0  0  0  0  0  0  0  0  0
    3.9045   -5.7370    6.9536 H   0  0  0  0  0  0  0  0  0  0  0  0
    3.3176   -7.1963    7.7557 H   0  0  0  0  0  0  0  0  0  0  0  0
    2.3194   -3.8371    6.5998 H   0  0  0  0  0  0  0  0  0  0  0  0
   -0.4062   -4.5080    6.4691 H   0  0  0  0  0  0  0  0  0  0  0  0
    1.6183   -2.9416    8.7008 H   0  0  0  0  0  0  0  0  0  0  0  0
    1.0149   -4.5159   10.5557 H   0  0  0  0  0  0  0  0  0  0  0  0
   -0.3290   -5.9960    7.4799 H   0  0  0  0  0  0  0  0  0  0  0  0
   -0.7830   -9.0074    8.7026 H   0  0  0  0  0  0  0  0  0  0  0  0
   -0.9406   -9.8341    7.0634 H   0  0  0  0  0  0  0  0  0  0  0  0
    6.0507   -4.9232    3.1816 H   0  0  0  0  0  0  0  0  0  0  0  0
  1  2  1  0
  1 44  1  0
  1 45  1  0
  1 46  1  0
  2  3  1  0
  2 47  1  0
  2 48  1  0
  3  4  1  0
  4 43  1  0
  4  5  1  0
  4 49  1  6
  5  6  1  0
  7  6  1  6
  7 24  1  0
  7 42  1  0
  7  8  1  0
  8  9  1  0
  8 43  1  0
  8 50  1  1
  9 10  1  0
  9 51  1  0
  9 52  1  0
 10 11  1  0
 10 53  1  0
 10 54  1  0
 11 12  1  0
 11 55  1  0
 11 56  1  0
 12 42  1  0
 12 13  1  0
 12 57  1  6
 13 14  1  0
 13 58  1  0
 13 59  1  0
 14 15  1  0
 14 60  1  0
 14 61  1  0
 15 16  1  0
 15 17  1  0
 15 62  1  1
 16 63  1  0
 16 64  1  0
 16 65  1  0
 17 18  1  0
 17 42  1  0
 17 66  1  6
 18 19  1  0
 18 67  1  0
 18 68  1  0
 19 24  1  0
 19 20  1  0
 19 69  1  1
 20 28  1  0
 20 21  1  0
 20 70  1  1
 21 22  1  0
 21 25  1  0
 21 71  1  6
 22 23  2  0
 22 72  1  0
 23 24  1  0
 23 73  1  0
 24 74  1  1
 25 26  1  0
 25 27  1  0
 25 75  1  6
 26 76  1  0
 26 77  1  0
 26 78  1  0
 27 39  1  0
 27 28  1  0
 27 79  1  6
 28 29  1  0
 28 80  1  1
 29 38  1  0
 29 30  1  1
 29 31  1  0
 30 81  1  0
 30 82  1  0
 30 83  1  0
 31 32  1  0
 31 33  1  0
 31 84  1  6
 32 85  1  0
 33 35  1  0
 33 34  1  0
 33 86  1  1
 34 35  1  0
 35 36  1  0
 35 87  1  1
 36 37  2  0
 36 38  1  0
 38 39  1  0
 38 88  1  6
 39 41  1  1
 39 40  1  0
 40 41  1  0
 40 89  1  0
 40 90  1  0
 42 91  1  1
M  END
>  <i_m_ct_stereo_status>  (25) 
1

>  <s_m_source_file>  (25) 
/var/tmp/pbs.5076255.sched01/tmp6mkrr40i/0ze8ciewu.sdf

>  <i_m_source_file_index>  (25) 
14

>  <i_lp_mmshare_version>  (25) 
48012

>  <i_f3d_flags>  (25) 
0

>  <s_epik_input>  (25) 
W0NIM11bQ0gyXU9bQ0BIXShPTzEpT1tDQEBIXShbQ0BdMTIzKVtDSDJdW0NIMl1bQ0gyXVtDQEBIXTRbQ0BASF0zW0NAQEhdKFtDQEhdKFtDSDNdKVtDSDJdW0NIMl00KVtDSDJdW0NAQEhdNVtDQEhdNltDQEBIXShbQ0hdPVtDSF1bQ0BIXTI1KVtDQEBIXShbQ0gzXSlbQ0BIXTdbQ0BdOChbQ0gyXU84KVtDQEBIXTlbQ0BdKFtDQEhdNjcpKFtDSDNdKVtDQEBIXShbT0hdKVtDQEBIXTFbQ0BASF0oTzEpQzk9Tw==

>  <s_epik_cmdline>  (25) 
J2VwaWtfcHl0aG9uJywgJy1waHQnLCAnMi4wJywgJy1waCcsICc3LjAnLCAnLXRuJywgJzgnLCAnLW1hJywgJzIwMCcsICctaW1hZScsICc8aW5maWxlLm1hZT4nLCAnLW9tYWUnLCAnPG91dGZpbGUubWFlPic=

>  <r_lp_tautomer_probability>  (25) 
1

>  <r_epik_Ionization_Penalty>  (25) 
5.94305e-08

>  <r_epik_Ionization_Penalty_Charging>  (25) 
0

>  <r_epik_Ionization_Penalty_Neutral>  (25) 
5.94305e-08

>  <r_epik_State_Penalty>  (25) 
-0

>  <r_epik_Charging_Adjusted_Penalty>  (25) 
0

>  <i_epik_Tot_Q>  (25) 
0

>  <i_epik_Tot_abs_Q>  (25) 
0

>  <s_epik_Chemistry_Notes>  (25) 
This compound contains an acetal/aminal-like group ( X-CH(R)-Y where X, Y are N, S, or O) that may be acid/base labile, releasing an aldehyde.

>  <s_lp_Force_Field>  (25) 
OPLS3e

>  <r_lp_Energy>  (25) 
101.364

>  <b_lp_Chiralities_Consistent>  (25) 
1

>  <s_lp_Variant>  (25) 
10:0-1

>  <s_i_glide_gridfile>  (25) 
pfpi4k_grid

>  <i_i_glide_lignum>  (25) 
14

>  <i_i_glide_rotatable_bonds>  (25) 
3

>  <r_i_docking_score>  (25) 
-1.81647

>  <r_i_glide_ligand_efficiency>  (25) 
-0.0422435

>  <r_i_glide_ligand_efficiency_sa>  (25) 
-0.147996

>  <r_i_glide_ligand_efficiency_ln>  (25) 
-0.381515

>  <r_i_glide_gscore>  (25) 
-1.81647

>  <r_i_glide_lipo>  (25) 
-0.579196

>  <r_i_glide_hbond>  (25) 
-0.123532

>  <r_i_glide_metal>  (25) 
-0

>  <r_i_glide_rewards>  (25) 
-0.0482167

>  <r_i_glide_evdw>  (25) 
-26.4237

>  <r_i_glide_ecoul>  (25) 
1.43783

>  <r_i_glide_erotb>  (25) 
0.0589245

>  <r_i_glide_esite>  (25) 
-0.0189405

>  <r_i_glide_emodel>  (25) 
-26.0127

>  <r_i_glide_energy>  (25) 
-24.9859

>  <r_i_glide_einternal>  (25) 
2.27074

>  <r_i_glide_intrahb_reward>  (25) 
-0

>  <i_i_glide_confnum>  (25) 
2

>  <i_i_glide_posenum>  (25) 
8

>  <r_i_glide_eff_state_penalty>  (25) 
0

>  <ligand_id>  (25) 
10

>  <original_smiles>  (25) 
CCOC1OOC23C(CCCC4CCC(C)C(CC5C6C(C=CC52)C(C)C2C6C5(C)C(O)C6OC6C(=O)C5C25CO5)C43)O1

>  <smiles>  (25) 
[H]OC1([H])C2([H])OC2([H])C(=O)C2([H])C3(OC3([H])[H])C3([H])C([H])(C([H])([H])[H])C4([H])C([H])=C([H])C5([H])C([H])(C([H])([H])C6([H])C([H])(C([H])([H])[H])C([H])([H])C([H])([H])C7([H])C([H])([H])C([H])([H])C([H])([H])C8([H])OC([H])(OC([H])([H])C([H])([H])[H])OOC85C76[H])C4([H])C3([H])C12C([H])([H])[H]

$$$$
10:0:1
     RDKit          3D

 91100  0  0  1  0  0  0  0  0999 V2000
   -1.0131    1.1090    2.5253 C   0  0  0  0  0  0  0  0  0  0  0  0
    0.2643    1.7851    1.9893 C   0  0  0  0  0  0  0  0  0  0  0  0
    1.4464    0.9748    1.9201 O   0  0  0  0  0  0  0  0  0  0  0  0
    1.9109    0.5081    3.1377 C   0  0  2  0  0  0  0  0  0  0  0  0
    3.2461    0.1282    3.0609 O   0  0  0  0  0  0  0  0  0  0  0  0
    3.7083   -0.3027    4.4426 O   0  0  0  0  0  0  0  0  0  0  0  0
    3.0263   -1.5035    4.7900 C   0  0  1  0  0  0  0  0  0  0  0  0
    1.5151   -1.1206    4.7963 C   0  0  1  0  0  0  0  0  0  0  0  0
    0.9400   -0.2583    5.9416 C   0  0  0  0  0  0  0  0  0  0  0  0
    1.8709    0.7497    6.6239 C   0  0  0  0  0  0  0  0  0  0  0  0
    2.7604    0.0896    7.6784 C   0  0  0  0  0  0  0  0  0  0  0  0
    3.9300   -0.7673    7.1550 C   0  0  1  0  0  0  0  0  0  0  0  0
    4.7133   -1.2116    8.4079 C   0  0  0  0  0  0  0  0  0  0  0  0
    5.8392   -2.1832    8.0899 C   0  0  0  0  0  0  0  0  0  0  0  0
    5.2780   -3.4343    7.4210 C   0  0  1  0  0  0  0  0  0  0  0  0
    4.4095   -4.2521    8.4093 C   0  0  0  0  0  0  0  0  0  0  0  0
    4.5869   -3.0420    6.0905 C   0  0  1  0  0  0  0  0  0  0  0  0
    4.0969   -4.2982    5.3203 C   0  0  0  0  0  0  0  0  0  0  0  0
    3.0520   -4.0272    4.2147 C   0  0  2  0  0  0  0  0  0  0  0  0
    3.0506   -5.0578    3.0478 C   0  0  1  0  0  0  0  0  0  0  0  0
    4.2214   -4.8754    2.0224 C   0  0  1  0  0  0  0  0  0  0  0  0
    5.0462   -3.6086    2.1939 C   0  0  0  0  0  0  0  0  0  0  0  0
    4.5987   -2.5564    2.9306 C   0  0  0  0  0  0  0  0  0  0  0  0
    3.2695   -2.6051    3.6719 C   0  0  2  0  0  0  0  0  0  0  0  0
    4.9581   -6.2604    1.8462 C   0  0  1  0  0  0  0  0  0  0  0  0
    6.2651   -6.4169    2.6584 C   0  0  0  0  0  0  0  0  0  0  0  0
    3.7813   -7.1986    2.1932 C   0  0  2  0  0  0  0  0  0  0  0  0
    3.1839   -6.5464    3.4260 C   0  0  2  0  0  0  0  0  0  0  0  0
    2.0681   -7.5104    3.9049 C   0  0  1  0  0  0  0  0  0  0  0  0
    2.2990   -7.7194    5.4345 C   0  0  0  0  0  0  0  0  0  0  0  0
    0.5625   -7.1964    3.7079 C   0  0  1  0  0  0  0  0  0  0  0  0
    0.2302   -6.7267    2.4074 O   0  0  0  0  0  0  0  0  0  0  0  0
   -0.2933   -8.4459    3.9669 C   0  0  1  0  0  0  0  0  0  0  0  0
   -0.4110   -9.3611    2.8417 O   0  0  0  0  0  0  0  0  0  0  0  0
    0.3283   -9.8766    3.9699 C   0  0  1  0  0  0  0  0  0  0  0  0
    1.7747  -10.0326    3.6751 C   0  0  0  0  0  0  0  0  0  0  0  0
    2.3897  -11.0891    3.8971 O   0  0  0  0  0  0  0  0  0  0  0  0
    2.3875   -8.7829    3.0543 C   0  0  2  0  0  0  0  0  0  0  0  0
    3.8041   -8.6853    2.5231 C   0  0  1  0  0  0  0  0  0  0  0  0
    4.6952   -9.7899    2.0633 C   0  0  0  0  0  0  0  0  0  0  0  0
    4.8905   -9.1195    3.3387 O   0  0  0  0  0  0  0  0  0  0  0  0
    3.4910   -1.9545    6.2218 C   0  0  2  0  0  0  0  0  0  0  0  0
    1.1314   -0.5603    3.5527 O   0  0  0  0  0  0  0  0  0  0  0  0
   -1.9068    1.7289    2.4063 H   0  0  0  0  0  0  0  0  0  0  0  0
   -0.9531    0.8711    3.5852 H   0  0  0  0  0  0  0  0  0  0  0  0
   -1.1745    0.1922    1.9710 H   0  0  0  0  0  0  0  0  0  0  0  0
    0.0667    2.0640    0.9600 H   0  0  0  0  0  0  0  0  0  0  0  0
    0.4360    2.7216    2.5233 H   0  0  0  0  0  0  0  0  0  0  0  0
    1.8569    1.3414    3.8270 H   0  0  0  0  0  0  0  0  0  0  0  0
    0.9578   -2.0550    4.8286 H   0  0  0  0  0  0  0  0  0  0  0  0
    0.0752    0.2729    5.5521 H   0  0  0  0  0  0  0  0  0  0  0  0
    0.5322   -0.9159    6.7065 H   0  0  0  0  0  0  0  0  0  0  0  0
    2.4595    1.3475    5.9273 H   0  0  0  0  0  0  0  0  0  0  0  0
    1.2327    1.4608    7.1502 H   0  0  0  0  0  0  0  0  0  0  0  0
    3.1773    0.8954    8.2849 H   0  0  0  0  0  0  0  0  0  0  0  0
    2.1406   -0.4953    8.3635 H   0  0  0  0  0  0  0  0  0  0  0  0
    4.5971   -0.0994    6.6084 H   0  0  0  0  0  0  0  0  0  0  0  0
    5.1508   -0.3340    8.8824 H   0  0  0  0  0  0  0  0  0  0  0  0
    4.0255   -1.6464    9.1365 H   0  0  0  0  0  0  0  0  0  0  0  0
    6.5579   -1.7044    7.4303 H   0  0  0  0  0  0  0  0  0  0  0  0
    6.3847   -2.4447    8.9940 H   0  0  0  0  0  0  0  0  0  0  0  0
    6.1317   -4.0664    7.1674 H   0  0  0  0  0  0  0  0  0  0  0  0
    3.4266   -3.7969    8.5739 H   0  0  0  0  0  0  0  0  0  0  0  0
    4.9093   -4.3293    9.3808 H   0  0  0  0  0  0  0  0  0  0  0  0
    4.2582   -5.2772    8.0590 H   0  0  0  0  0  0  0  0  0  0  0  0
    5.3806   -2.5896    5.4944 H   0  0  0  0  0  0  0  0  0  0  0  0
    4.9609   -4.7969    4.8851 H   0  0  0  0  0  0  0  0  0  0  0  0
    3.6636   -5.0160    6.0071 H   0  0  0  0  0  0  0  0  0  0  0  0
    2.0653   -4.0693    4.6694 H   0  0  0  0  0  0  0  0  0  0  0  0
    2.1277   -4.9299    2.4834 H   0  0  0  0  0  0  0  0  0  0  0  0
    3.7393   -4.7291    1.0554 H   0  0  0  0  0  0  0  0  0  0  0  0
    5.9637   -3.5636    1.6355 H   0  0  0  0  0  0  0  0  0  0  0  0
    5.1555   -1.6424    2.9881 H   0  0  0  0  0  0  0  0  0  0  0  0
    2.5531   -2.4268    2.8698 H   0  0  0  0  0  0  0  0  0  0  0  0
    5.2229   -6.4322    0.7970 H   0  0  0  0  0  0  0  0  0  0  0  0
    6.1182   -6.2882    3.7272 H   0  0  0  0  0  0  0  0  0  0  0  0
    6.9928   -5.6755    2.3338 H   0  0  0  0  0  0  0  0  0  0  0  0
    6.7182   -7.3956    2.4969 H   0  0  0  0  0  0  0  0  0  0  0  0
    3.0630   -7.1181    1.3684 H   0  0  0  0  0  0  0  0  0  0  0  0
    3.9622   -6.6201    4.1841 H   0  0  0  0  0  0  0  0  0  0  0  0
    1.6030   -8.4250    5.8981 H   0  0  0  0  0  0  0  0  0  0  0  0
    2.1807   -6.7728    5.9693 H   0  0  0  0  0  0  0  0  0  0  0  0
    3.3027   -8.0987    5.6422 H   0  0  0  0  0  0  0  0  0  0  0  0
    0.2564   -6.4204    4.4234 H   0  0  0  0  0  0  0  0  0  0  0  0
    0.4353   -7.4247    1.8031 H   0  0  0  0  0  0  0  0  0  0  0  0
   -1.2163   -8.3180    4.5085 H   0  0  0  0  0  0  0  0  0  0  0  0
   -0.1666  -10.6401    4.5363 H   0  0  0  0  0  0  0  0  0  0  0  0
    1.7716   -8.6720    2.1538 H   0  0  0  0  0  0  0  0  0  0  0  0
    4.2884  -10.7978    2.1351 H   0  0  0  0  0  0  0  0  0  0  0  0
    5.4506   -9.6263    1.2966 H   0  0  0  0  0  0  0  0  0  0  0  0
    2.6465   -2.4388    6.7090 H   0  0  0  0  0  0  0  0  0  0  0  0
  1  2  1  0
  1 44  1  0
  1 45  1  0
  1 46  1  0
  2  3  1  0
  2 47  1  0
  2 48  1  0
  3  4  1  0
  4 43  1  0
  4  5  1  0
  4 49  1  1
  5  6  1  0
  7  6  1  6
  7 24  1  0
  7 42  1  0
  7  8  1  0
  8  9  1  0
  8 43  1  0
  8 50  1  1
  9 10  1  0
  9 51  1  0
  9 52  1  0
 10 11  1  0
 10 53  1  0
 10 54  1  0
 11 12  1  0
 11 55  1  0
 11 56  1  0
 12 42  1  0
 12 13  1  0
 12 57  1  6
 13 14  1  0
 13 58  1  0
 13 59  1  0
 14 15  1  0
 14 60  1  0
 14 61  1  0
 15 16  1  0
 15 17  1  0
 15 62  1  6
 16 63  1  0
 16 64  1  0
 16 65  1  0
 17 18  1  0
 17 42  1  0
 17 66  1  6
 18 19  1  0
 18 67  1  0
 18 68  1  0
 19 24  1  0
 19 20  1  0
 19 69  1  1
 20 28  1  0
 20 21  1  0
 20 70  1  6
 21 22  1  0
 21 25  1  0
 21 71  1  6
 22 23  2  0
 22 72  1  0
 23 24  1  0
 23 73  1  0
 24 74  1  6
 25 26  1  0
 25 27  1  0
 25 75  1  6
 26 76  1  0
 26 77  1  0
 26 78  1  0
 27 39  1  0
 27 28  1  0
 27 79  1  6
 28 29  1  0
 28 80  1  1
 29 38  1  0
 29 30  1  1
 29 31  1  0
 30 81  1  0
 30 82  1  0
 30 83  1  0
 31 32  1  0
 31 33  1  0
 31 84  1  1
 32 85  1  0
 33 35  1  0
 33 34  1  0
 33 86  1  1
 34 35  1  0
 35 36  1  0
 35 87  1  1
 36 37  2  0
 36 38  1  0
 38 39  1  0
 38 88  1  6
 39 41  1  1
 39 40  1  0
 40 41  1  0
 40 89  1  0
 40 90  1  0
 42 91  1  1
M  END
>  <i_m_ct_stereo_status>  (26) 
1

>  <s_m_source_file>  (26) 
/var/tmp/pbs.5076255.sched01/tmp6mkrr40i/0ze8ciewu.sdf

>  <i_m_source_file_index>  (26) 
14

>  <i_lp_mmshare_version>  (26) 
48012

>  <i_f3d_flags>  (26) 
0

>  <s_epik_input>  (26) 
W0NIM11bQ0gyXU9bQ0BIXShPTzEpT1tDQEBIXShbQ0BdMTIzKVtDSDJdW0NIMl1bQ0gyXVtDQEBIXTRbQ0BASF0zW0NAQEhdKFtDQEhdKFtDSDNdKVtDSDJdW0NIMl00KVtDSDJdW0NAQEhdNVtDQEhdNltDQEBIXShbQ0hdPVtDSF1bQ0BIXTI1KVtDQEBIXShbQ0gzXSlbQ0BIXTdbQ0BdOChbQ0gyXU84KVtDQEBIXTlbQ0BdKFtDQEhdNjcpKFtDSDNdKVtDQEBIXShbT0hdKVtDQEBIXTFbQ0BASF0oTzEpQzk9Tw==

>  <s_epik_cmdline>  (26) 
J2VwaWtfcHl0aG9uJywgJy1waHQnLCAnMi4wJywgJy1waCcsICc3LjAnLCAnLXRuJywgJzgnLCAnLW1hJywgJzIwMCcsICctaW1hZScsICc8aW5maWxlLm1hZT4nLCAnLW9tYWUnLCAnPG91dGZpbGUubWFlPic=

>  <r_lp_tautomer_probability>  (26) 
1

>  <r_epik_Ionization_Penalty>  (26) 
5.94305e-08

>  <r_epik_Ionization_Penalty_Charging>  (26) 
0

>  <r_epik_Ionization_Penalty_Neutral>  (26) 
5.94305e-08

>  <r_epik_State_Penalty>  (26) 
-0

>  <r_epik_Charging_Adjusted_Penalty>  (26) 
0

>  <i_epik_Tot_Q>  (26) 
0

>  <i_epik_Tot_abs_Q>  (26) 
0

>  <s_epik_Chemistry_Notes>  (26) 
This compound contains an acetal/aminal-like group ( X-CH(R)-Y where X, Y are N, S, or O) that may be acid/base labile, releasing an aldehyde.

>  <s_lp_Force_Field>  (26) 
OPLS3e

>  <r_lp_Energy>  (26) 
101.364

>  <b_lp_Chiralities_Consistent>  (26) 
1

>  <s_lp_Variant>  (26) 
10:0-1

>  <s_i_glide_gridfile>  (26) 
pfpi4k_grid

>  <i_i_glide_lignum>  (26) 
14

>  <i_i_glide_rotatable_bonds>  (26) 
3

>  <r_i_docking_score>  (26) 
-1.52301

>  <r_i_glide_ligand_efficiency>  (26) 
-0.0354188

>  <r_i_glide_ligand_efficiency_sa>  (26) 
-0.124086

>  <r_i_glide_ligand_efficiency_ln>  (26) 
-0.319879

>  <r_i_glide_gscore>  (26) 
-1.52301

>  <r_i_glide_lipo>  (26) 
-0.149082

>  <r_i_glide_hbond>  (26) 
0

>  <r_i_glide_metal>  (26) 
-0

>  <r_i_glide_rewards>  (26) 
-0.00951145

>  <r_i_glide_evdw>  (26) 
-24.7609

>  <r_i_glide_ecoul>  (26) 
-1.1723

>  <r_i_glide_erotb>  (26) 
0.0589245

>  <r_i_glide_esite>  (26) 
-0.00944659

>  <r_i_glide_emodel>  (26) 
-26.7369

>  <r_i_glide_energy>  (26) 
-25.9332

>  <r_i_glide_einternal>  (26) 
2.4495

>  <r_i_glide_intrahb_reward>  (26) 
-0

>  <i_i_glide_confnum>  (26) 
3

>  <i_i_glide_posenum>  (26) 
7

>  <r_i_glide_eff_state_penalty>  (26) 
0

>  <ligand_id>  (26) 
10

>  <original_smiles>  (26) 
CCOC1OOC23C(CCCC4CCC(C)C(CC5C6C(C=CC52)C(C)C2C6C5(C)C(O)C6OC6C(=O)C5C25CO5)C43)O1

>  <smiles>  (26) 
[H]OC1([H])C2([H])OC2([H])C(=O)C2([H])C3(OC3([H])[H])C3([H])C([H])(C([H])([H])[H])C4([H])C([H])=C([H])C5([H])C([H])(C([H])([H])C6([H])C([H])(C([H])([H])[H])C([H])([H])C([H])([H])C7([H])C([H])([H])C([H])([H])C([H])([H])C8([H])OC([H])(OC([H])([H])C([H])([H])[H])OOC85C76[H])C4([H])C3([H])C12C([H])([H])[H]

$$$$
10:0:2
     RDKit          3D

 91100  0  0  1  0  0  0  0  0999 V2000
    2.3377    1.1245    1.8388 C   0  0  0  0  0  0  0  0  0  0  0  0
    0.9674    0.5098    2.1527 C   0  0  0  0  0  0  0  0  0  0  0  0
    1.0134   -0.9002    2.3733 O   0  0  0  0  0  0  0  0  0  0  0  0
    1.6491   -1.3074    3.5413 C   0  0  2  0  0  0  0  0  0  0  0  0
    2.9991   -1.5052    3.3168 O   0  0  0  0  0  0  0  0  0  0  0  0
    3.6716   -1.8175    4.6435 O   0  0  0  0  0  0  0  0  0  0  0  0
    3.2518   -3.1160    5.0372 C   0  0  1  0  0  0  0  0  0  0  0  0
    1.6971   -2.9945    5.1849 C   0  0  1  0  0  0  0  0  0  0  0  0
    1.0847   -2.2359    6.3913 C   0  0  0  0  0  0  0  0  0  0  0  0
    1.9009   -1.0868    7.0085 C   0  0  0  0  0  0  0  0  0  0  0  0
    2.9741   -1.5898    7.9742 C   0  0  0  0  0  0  0  0  0  0  0  0
    4.2218   -2.2338    7.3368 C   0  0  1  0  0  0  0  0  0  0  0  0
    5.1715   -2.5411    8.5185 C   0  0  0  0  0  0  0  0  0  0  0  0
    6.4196   -3.3066    8.0979 C   0  0  0  0  0  0  0  0  0  0  0  0
    6.0227   -4.6339    7.4534 C   0  0  1  0  0  0  0  0  0  0  0  0
    5.3918   -5.5911    8.4951 C   0  0  0  0  0  0  0  0  0  0  0  0
    5.1622   -4.3588    6.1908 C   0  0  1  0  0  0  0  0  0  0  0  0
    4.8352   -5.6774    5.4425 C   0  0  0  0  0  0  0  0  0  0  0  0
    3.6694   -5.5921    4.4319 C   0  0  2  0  0  0  0  0  0  0  0  0
    3.7530   -6.6021    3.2476 C   0  0  1  0  0  0  0  0  0  0  0  0
    4.7820   -6.2173    2.1394 C   0  0  1  0  0  0  0  0  0  0  0  0
    5.3927   -4.8280    2.2680 C   0  0  0  0  0  0  0  0  0  0  0  0
    4.8320   -3.8741    3.0529 C   0  0  0  0  0  0  0  0  0  0  0  0
    3.5905   -4.1568    3.8932 C   0  0  2  0  0  0  0  0  0  0  0  0
    5.7314   -7.4646    1.8909 C   0  0  1  0  0  0  0  0  0  0  0  0
    7.1106   -7.3918    2.5873 C   0  0  0  0  0  0  0  0  0  0  0  0
    4.7661   -8.6050    2.3157 C   0  0  2  0  0  0  0  0  0  0  0  0
    4.1698   -8.0485    3.5913 C   0  0  2  0  0  0  0  0  0  0  0  0
    3.2810   -9.1961    4.1468 C   0  0  1  0  0  0  0  0  0  0  0  0
    3.6647   -9.3620    5.6488 C   0  0  0  0  0  0  0  0  0  0  0  0
    1.7292   -9.1370    4.0764 C   0  0  1  0  0  0  0  0  0  0  0  0
    1.2498   -8.7189    2.8102 O   0  0  0  0  0  0  0  0  0  0  0  0
    1.1138  -10.5093    4.3779 C   0  0  1  0  0  0  0  0  0  0  0  0
    1.0525  -11.4177    3.2538 O   0  0  0  0  0  0  0  0  0  0  0  0
    1.9347  -11.8203    4.3135 C   0  0  1  0  0  0  0  0  0  0  0  0
    3.3781  -11.7358    3.9168 C   0  0  0  0  0  0  0  0  0  0  0  0
    4.1964  -12.6493    4.0972 O   0  0  0  0  0  0  0  0  0  0  0  0
    3.7269  -10.3988    3.2656 C   0  0  2  0  0  0  0  0  0  0  0  0
    5.0591  -10.0735    2.6174 C   0  0  1  0  0  0  0  0  0  0  0  0
    6.0782  -10.9930    2.0398 C   0  0  0  0  0  0  0  0  0  0  0  0
    6.2748  -10.3237    3.3252 O   0  0  0  0  0  0  0  0  0  0  0  0
    3.9085   -3.4771    6.4251 C   0  0  2  0  0  0  0  0  0  0  0  0
    1.0762   -2.4800    4.0071 O   0  0  0  0  0  0  0  0  0  0  0  0
    2.2352    2.1895    1.6488 H   0  0  0  0  0  0  0  0  0  0  0  0
    2.7737    0.6553    0.9598 H   0  0  0  0  0  0  0  0  0  0  0  0
    3.0442    1.0277    2.6591 H   0  0  0  0  0  0  0  0  0  0  0  0
    0.4747    1.0506    2.9663 H   0  0  0  0  0  0  0  0  0  0  0  0
    0.3135    0.6574    1.2938 H   0  0  0  0  0  0  0  0  0  0  0  0
    1.5013   -0.5208    4.2796 H   0  0  0  0  0  0  0  0  0  0  0  0
    1.2928   -4.0047    5.2431 H   0  0  0  0  0  0  0  0  0  0  0  0
    0.1143   -1.8472    6.0695 H   0  0  0  0  0  0  0  0  0  0  0  0
    0.8541   -2.9603    7.1731 H   0  0  0  0  0  0  0  0  0  0  0  0
    2.3186   -0.3966    6.2735 H   0  0  0  0  0  0  0  0  0  0  0  0
    1.2001   -0.4907    7.5978 H   0  0  0  0  0  0  0  0  0  0  0  0
    3.2982   -0.7246    8.5548 H   0  0  0  0  0  0  0  0  0  0  0  0
    2.5229   -2.2694    8.6989 H   0  0  0  0  0  0  0  0  0  0  0  0
    4.7244   -1.4641    6.7523 H   0  0  0  0  0  0  0  0  0  0  0  0
    5.4935   -1.6032    8.9787 H   0  0  0  0  0  0  0  0  0  0  0  0
    4.6387   -3.0923    9.2960 H   0  0  0  0  0  0  0  0  0  0  0  0
    6.9932   -2.7092    7.3895 H   0  0  0  0  0  0  0  0  0  0  0  0
    7.0748   -3.4751    8.9519 H   0  0  0  0  0  0  0  0  0  0  0  0
    6.9505   -5.1145    7.1242 H   0  0  0  0  0  0  0  0  0  0  0  0
    4.3646   -5.3116    8.7443 H   0  0  0  0  0  0  0  0  0  0  0  0
    5.9728   -5.5847    9.4214 H   0  0  0  0  0  0  0  0  0  0  0  0
    5.3857   -6.6244    8.1431 H   0  0  0  0  0  0  0  0  0  0  0  0
    5.8240   -3.7801    5.5435 H   0  0  0  0  0  0  0  0  0  0  0  0
    5.7369   -6.0194    4.9360 H   0  0  0  0  0  0  0  0  0  0  0  0
    4.5853   -6.4633    6.1504 H   0  0  0  0  0  0  0  0  0  0  0  0
    2.7478   -5.8050    4.9631 H   0  0  0  0  0  0  0  0  0  0  0  0
    2.7785   -6.6337    2.7607 H   0  0  0  0  0  0  0  0  0  0  0  0
    4.2087   -6.1561    1.2115 H   0  0  0  0  0  0  0  0  0  0  0  0
    6.2406   -4.6281    1.6380 H   0  0  0  0  0  0  0  0  0  0  0  0
    5.2375   -2.8830    3.0768 H   0  0  0  0  0  0  0  0  0  0  0  0
    2.7856   -4.0893    3.1620 H   0  0  0  0  0  0  0  0  0  0  0  0
    5.9273   -7.5727    0.8225 H   0  0  0  0  0  0  0  0  0  0  0  0
    7.0415   -7.2919    3.6671 H   0  0  0  0  0  0  0  0  0  0  0  0
    7.6750   -6.5370    2.2127 H   0  0  0  0  0  0  0  0  0  0  0  0
    7.7075   -8.2775    2.3677 H   0  0  0  0  0  0  0  0  0  0  0  0
    3.9900   -8.6233    1.5460 H   0  0  0  0  0  0  0  0  0  0  0  0
    5.0120   -7.9905    4.2832 H   0  0  0  0  0  0  0  0  0  0  0  0
    3.1321  -10.1725    6.1569 H   0  0  0  0  0  0  0  0  0  0  0  0
    3.4316   -8.4523    6.2043 H   0  0  0  0  0  0  0  0  0  0  0  0
    4.7328   -9.5654    5.7735 H   0  0  0  0  0  0  0  0  0  0  0  0
    1.3626   -8.4249    4.8170 H   0  0  0  0  0  0  0  0  0  0  0  0
    1.3895   -9.4237    2.1978 H   0  0  0  0  0  0  0  0  0  0  0  0
    0.2207  -10.5264    5.0002 H   0  0  0  0  0  0  0  0  0  0  0  0
    1.5626  -12.6551    4.8887 H   0  0  0  0  0  0  0  0  0  0  0  0
    3.0489  -10.3958    2.4060 H   0  0  0  0  0  0  0  0  0  0  0  0
    5.8417  -12.0490    2.0933 H   0  0  0  0  0  0  0  0  0  0  0  0
    6.7335  -10.6828    1.2366 H   0  0  0  0  0  0  0  0  0  0  0  0
    3.2098   -4.1018    6.9773 H   0  0  0  0  0  0  0  0  0  0  0  0
  1  2  1  0
  1 44  1  0
  1 45  1  0
  1 46  1  0
  2  3  1  0
  2 47  1  0
  2 48  1  0
  3  4  1  0
  4 43  1  0
  4  5  1  0
  4 49  1  1
  5  6  1  0
  7  6  1  6
  7 24  1  0
  7 42  1  0
  7  8  1  0
  8  9  1  0
  8 43  1  0
  8 50  1  1
  9 10  1  0
  9 51  1  0
  9 52  1  0
 10 11  1  0
 10 53  1  0
 10 54  1  0
 11 12  1  0
 11 55  1  0
 11 56  1  0
 12 42  1  0
 12 13  1  0
 12 57  1  6
 13 14  1  0
 13 58  1  0
 13 59  1  0
 14 15  1  0
 14 60  1  0
 14 61  1  0
 15 16  1  0
 15 17  1  0
 15 62  1  6
 16 63  1  0
 16 64  1  0
 16 65  1  0
 17 18  1  0
 17 42  1  0
 17 66  1  6
 18 19  1  0
 18 67  1  0
 18 68  1  0
 19 24  1  0
 19 20  1  0
 19 69  1  1
 20 28  1  0
 20 21  1  0
 20 70  1  6
 21 22  1  0
 21 25  1  0
 21 71  1  6
 22 23  2  0
 22 72  1  0
 23 24  1  0
 23 73  1  0
 24 74  1  6
 25 26  1  0
 25 27  1  0
 25 75  1  6
 26 76  1  0
 26 77  1  0
 26 78  1  0
 27 39  1  0
 27 28  1  0
 27 79  1  6
 28 29  1  0
 28 80  1  1
 29 38  1  0
 29 30  1  1
 29 31  1  0
 30 81  1  0
 30 82  1  0
 30 83  1  0
 31 32  1  0
 31 33  1  0
 31 84  1  1
 32 85  1  0
 33 35  1  0
 33 34  1  0
 33 86  1  1
 34 35  1  0
 35 36  1  0
 35 87  1  1
 36 37  2  0
 36 38  1  0
 38 39  1  0
 38 88  1  6
 39 41  1  1
 39 40  1  0
 40 41  1  0
 40 89  1  0
 40 90  1  0
 42 91  1  1
M  END
>  <i_m_ct_stereo_status>  (27) 
1

>  <s_m_source_file>  (27) 
/var/tmp/pbs.5076255.sched01/tmp6mkrr40i/0ze8ciewu.sdf

>  <i_m_source_file_index>  (27) 
14

>  <i_lp_mmshare_version>  (27) 
48012

>  <i_f3d_flags>  (27) 
0

>  <s_epik_input>  (27) 
W0NIM11bQ0gyXU9bQ0BIXShPTzEpT1tDQEBIXShbQ0BdMTIzKVtDSDJdW0NIMl1bQ0gyXVtDQEBIXTRbQ0BASF0zW0NAQEhdKFtDQEhdKFtDSDNdKVtDSDJdW0NIMl00KVtDSDJdW0NAQEhdNVtDQEhdNltDQEBIXShbQ0hdPVtDSF1bQ0BIXTI1KVtDQEBIXShbQ0gzXSlbQ0BIXTdbQ0BdOChbQ0gyXU84KVtDQEBIXTlbQ0BdKFtDQEhdNjcpKFtDSDNdKVtDQEBIXShbT0hdKVtDQEBIXTFbQ0BASF0oTzEpQzk9Tw==

>  <s_epik_cmdline>  (27) 
J2VwaWtfcHl0aG9uJywgJy1waHQnLCAnMi4wJywgJy1waCcsICc3LjAnLCAnLXRuJywgJzgnLCAnLW1hJywgJzIwMCcsICctaW1hZScsICc8aW5maWxlLm1hZT4nLCAnLW9tYWUnLCAnPG91dGZpbGUubWFlPic=

>  <r_lp_tautomer_probability>  (27) 
1

>  <r_epik_Ionization_Penalty>  (27) 
5.94305e-08

>  <r_epik_Ionization_Penalty_Charging>  (27) 
0

>  <r_epik_Ionization_Penalty_Neutral>  (27) 
5.94305e-08

>  <r_epik_State_Penalty>  (27) 
-0

>  <r_epik_Charging_Adjusted_Penalty>  (27) 
0

>  <i_epik_Tot_Q>  (27) 
0

>  <i_epik_Tot_abs_Q>  (27) 
0

>  <s_epik_Chemistry_Notes>  (27) 
This compound contains an acetal/aminal-like group ( X-CH(R)-Y where X, Y are N, S, or O) that may be acid/base labile, releasing an aldehyde.

>  <s_lp_Force_Field>  (27) 
OPLS3e

>  <r_lp_Energy>  (27) 
101.364

>  <b_lp_Chiralities_Consistent>  (27) 
1

>  <s_lp_Variant>  (27) 
10:0-1

>  <s_i_glide_gridfile>  (27) 
pfpi4k_grid

>  <i_i_glide_lignum>  (27) 
14

>  <i_i_glide_rotatable_bonds>  (27) 
3

>  <r_i_docking_score>  (27) 
-1.29023

>  <r_i_glide_ligand_efficiency>  (27) 
-0.0300053

>  <r_i_glide_ligand_efficiency_sa>  (27) 
-0.10512

>  <r_i_glide_ligand_efficiency_ln>  (27) 
-0.270988

>  <r_i_glide_gscore>  (27) 
-1.29023

>  <r_i_glide_lipo>  (27) 
-0.145209

>  <r_i_glide_hbond>  (27) 
0

>  <r_i_glide_metal>  (27) 
-0

>  <r_i_glide_rewards>  (27) 
0

>  <r_i_glide_evdw>  (27) 
-25.1108

>  <r_i_glide_ecoul>  (27) 
0.550795

>  <r_i_glide_erotb>  (27) 
0.0589245

>  <r_i_glide_esite>  (27) 
-0.0310232

>  <r_i_glide_emodel>  (27) 
-24.9984

>  <r_i_glide_energy>  (27) 
-24.56

>  <r_i_glide_einternal>  (27) 
2.50769

>  <r_i_glide_intrahb_reward>  (27) 
-0

>  <i_i_glide_confnum>  (27) 
2

>  <i_i_glide_posenum>  (27) 
16

>  <r_i_glide_eff_state_penalty>  (27) 
0

>  <ligand_id>  (27) 
10

>  <original_smiles>  (27) 
CCOC1OOC23C(CCCC4CCC(C)C(CC5C6C(C=CC52)C(C)C2C6C5(C)C(O)C6OC6C(=O)C5C25CO5)C43)O1

>  <smiles>  (27) 
[H]OC1([H])C2([H])OC2([H])C(=O)C2([H])C3(OC3([H])[H])C3([H])C([H])(C([H])([H])[H])C4([H])C([H])=C([H])C5([H])C([H])(C([H])([H])C6([H])C([H])(C([H])([H])[H])C([H])([H])C([H])([H])C7([H])C([H])([H])C([H])([H])C([H])([H])C8([H])OC([H])(OC([H])([H])C([H])([H])[H])OOC85C76[H])C4([H])C3([H])C12C([H])([H])[H]

$$$$
11:0:0
     RDKit          3D

 74 82  0  0  1  0  0  0  0  0999 V2000
   -2.6038    2.4558    8.6112 C   0  0  0  0  0  0  0  0  0  0  0  0
   -1.9464    1.8475    7.5075 O   0  0  0  0  0  0  0  0  0  0  0  0
   -1.8119    2.6515    6.3552 C   0  0  2  0  0  0  0  0  0  0  0  0
   -1.1648    2.0643    5.0667 C   0  0  0  0  0  0  0  0  0  0  0  0
    0.0809    2.8957    4.6381 C   0  0  1  0  0  0  0  0  0  0  0  0
   -0.5948    4.2497    5.1316 C   0  0  1  0  0  0  0  0  0  0  0  0
   -1.7530    4.5623    4.3270 O   0  0  0  0  0  0  0  0  0  0  0  0
   -1.5762    4.9357    2.9616 C   0  0  0  0  0  0  0  0  0  0  0  0
   -1.0381    3.9377    6.5814 C   0  0  2  0  0  0  0  0  0  0  0  0
    0.1851    4.0151    7.5455 C   0  0  1  0  0  0  0  0  0  0  0  0
    0.7591    3.0949    8.7331 C   0  0  1  0  0  0  0  0  0  0  0  0
    0.5645    1.8599    9.6768 C   0  0  2  0  0  0  0  0  0  0  0  0
    1.9530    1.1672    9.8744 C   0  0  0  0  0  0  0  0  0  0  0  0
    1.6484    0.4081    8.5203 C   0  0  1  0  0  0  0  0  0  0  0  0
    0.2552    0.4223    9.2503 C   0  0  0  0  0  0  0  0  0  0  0  0
    1.4944    1.0992    7.0795 C   0  0  2  0  0  0  0  0  0  0  0  0
    0.4997    0.0048    6.3580 C   0  0  1  0  0  0  0  0  0  0  0  0
   -0.8729   -0.2668    6.6676 O   0  0  0  0  0  0  0  0  0  0  0  0
   -1.5632   -1.2720    5.9112 C   0  0  0  0  0  0  0  0  0  0  0  0
    0.9048   -0.3908    4.9201 C   0  0  0  0  0  0  0  0  0  0  0  0
    2.3020    0.0781    4.8395 C   0  0  0  0  0  0  0  0  0  0  0  0
    2.3562    1.3049    5.7669 C   0  0  2  0  0  0  0  0  0  0  0  0
    3.8854    1.3277    6.0895 C   0  0  0  0  0  0  0  0  0  0  0  0
    1.6994    2.6008    4.9216 C   0  0  2  0  0  0  0  0  0  0  0  0
    2.2158    3.9330    5.4813 C   0  0  1  0  0  0  0  0  0  0  0  0
    3.7145    4.2891    5.6890 C   0  0  1  0  0  0  0  0  0  0  0  0
    3.6753    5.3191    4.5849 C   0  0  0  0  0  0  0  0  0  0  0  0
    2.2249    5.1421    4.5207 N   0  0  1  0  0  0  0  0  0  0  0  0
    1.7517    5.0579    3.1085 C   0  0  0  0  0  0  0  0  0  0  0  0
    3.8063    4.9661    6.9342 O   0  0  0  0  0  0  0  0  0  0  0  0
    2.6423    5.0384    7.5889 C   0  0  0  0  0  0  0  0  0  0  0  0
    2.4585    5.7938    8.5291 O   0  0  0  0  0  0  0  0  0  0  0  0
    1.6580    4.0413    6.9289 C   0  0  1  0  0  0  0  0  0  0  0  0
    1.6020    2.6232    7.6028 C   0  0  1  0  0  0  0  0  0  0  0  0
   -2.6226    1.7487    9.4415 H   0  0  0  0  0  0  0  0  0  0  0  0
   -3.6309    2.7294    8.3682 H   0  0  0  0  0  0  0  0  0  0  0  0
   -2.0760    3.3408    8.9649 H   0  0  0  0  0  0  0  0  0  0  0  0
   -2.8367    2.9253    6.0911 H   0  0  0  0  0  0  0  0  0  0  0  0
   -1.1979    1.0183    4.9189 H   0  0  0  0  0  0  0  0  0  0  0  0
   -1.9126    2.2594    4.2956 H   0  0  0  0  0  0  0  0  0  0  0  0
    0.0510    2.8751    3.5507 H   0  0  0  0  0  0  0  0  0  0  0  0
   -0.0216    5.1682    5.1798 H   0  0  0  0  0  0  0  0  0  0  0  0
   -2.5267    5.1449    2.4909 H   0  0  0  0  0  0  0  0  0  0  0  0
   -1.1604    4.1209    2.3763 H   0  0  0  0  0  0  0  0  0  0  0  0
   -0.9456    5.8153    2.8773 H   0  0  0  0  0  0  0  0  0  0  0  0
   -1.7552    4.6760    6.9303 H   0  0  0  0  0  0  0  0  0  0  0  0
    0.0583    4.9787    8.0349 H   0  0  0  0  0  0  0  0  0  0  0  0
    1.2897    3.7674    9.3982 H   0  0  0  0  0  0  0  0  0  0  0  0
    0.0769    2.1370   10.6111 H   0  0  0  0  0  0  0  0  0  0  0  0
    2.8162    1.8326    9.9069 H   0  0  0  0  0  0  0  0  0  0  0  0
    2.0051    0.5296   10.7616 H   0  0  0  0  0  0  0  0  0  0  0  0
    2.1088   -0.5823    8.5180 H   0  0  0  0  0  0  0  0  0  0  0  0
    0.1528   -0.2841   10.0830 H   0  0  0  0  0  0  0  0  0  0  0  0
   -0.6674    0.3926    8.7190 H   0  0  0  0  0  0  0  0  0  0  0  0
    0.8671   -0.9189    6.8041 H   0  0  0  0  0  0  0  0  0  0  0  0
   -2.5816   -1.3580    6.2785 H   0  0  0  0  0  0  0  0  0  0  0  0
   -1.0855   -2.2474    5.9805 H   0  0  0  0  0  0  0  0  0  0  0  0
   -1.6780   -1.0109    4.8608 H   0  0  0  0  0  0  0  0  0  0  0  0
    0.8713   -1.4694    4.7482 H   0  0  0  0  0  0  0  0  0  0  0  0
    0.3449    0.0637    4.1072 H   0  0  0  0  0  0  0  0  0  0  0  0
    2.9450   -0.7353    5.1801 H   0  0  0  0  0  0  0  0  0  0  0  0
    2.5994    0.3028    3.8123 H   0  0  0  0  0  0  0  0  0  0  0  0
    4.4728    1.4693    5.1775 H   0  0  0  0  0  0  0  0  0  0  0  0
    4.2069    0.3746    6.5138 H   0  0  0  0  0  0  0  0  0  0  0  0
    4.2085    2.0558    6.8289 H   0  0  0  0  0  0  0  0  0  0  0  0
    2.1346    2.4880    3.9301 H   0  0  0  0  0  0  0  0  0  0  0  0
    4.5019    3.5645    5.4812 H   0  0  0  0  0  0  0  0  0  0  0  0
    3.9672    6.3388    4.8378 H   0  0  0  0  0  0  0  0  0  0  0  0
    4.1412    4.9818    3.6593 H   0  0  0  0  0  0  0  0  0  0  0  0
    2.1951    4.2020    2.5620 H   0  0  0  0  0  0  0  0  0  0  0  0
    2.0834    5.9607    2.5852 H   0  0  0  0  0  0  0  0  0  0  0  0
    0.7255    5.0379    3.0709 H   0  0  0  0  0  0  0  0  0  0  0  0
    2.6087    2.6302    8.0075 H   0  0  0  0  0  0  0  0  0  0  0  0
    1.8019    5.9288    4.9950 H   0  0  0  0  0  0  0  0  0  0  0  0
  1  2  1  0
  1 35  1  0
  1 36  1  0
  1 37  1  0
  2  3  1  0
  3  9  1  0
  3  4  1  0
  3 38  1  6
  4  5  1  0
  4 39  1  0
  4 40  1  0
  5 24  1  0
  5  6  1  0
  5 41  1  6
  6  7  1  0
  6  9  1  0
  6 42  1  1
  7  8  1  0
  8 43  1  0
  8 44  1  0
  8 45  1  0
  9 10  1  0
  9 46  1  1
 10 33  1  0
 10 11  1  0
 10 47  1  1
 11 34  1  0
 11 12  1  0
 11 48  1  1
 12 15  1  0
 12 13  1  0
 12 49  1  1
 13 14  1  0
 13 50  1  0
 13 51  1  0
 14 15  1  0
 14 16  1  0
 14 52  1  6
 15 53  1  0
 15 54  1  0
 16 22  1  6
 16 34  1  0
 16 17  1  0
 17 18  1  0
 17 20  1  0
 17 55  1  1
 18 19  1  0
 19 56  1  0
 19 57  1  0
 19 58  1  0
 20 21  1  0
 20 59  1  0
 20 60  1  0
 21 22  1  0
 21 61  1  0
 21 62  1  0
 22 23  1  1
 22 24  1  0
 23 63  1  0
 23 64  1  0
 23 65  1  0
 24 25  1  0
 24 66  1  6
 25 28  1  0
 25 33  1  1
 25 26  1  0
 26 27  1  0
 26 30  1  0
 26 67  1  6
 27 28  1  0
 27 68  1  0
 27 69  1  0
 28 29  1  0
 28 74  1  1
 29 70  1  0
 29 71  1  0
 29 72  1  0
 30 31  1  0
 31 32  2  0
 33 31  1  1
 33 34  1  0
 34 73  1  1
M  CHG  1  28   1
M  END
>  <i_m_ct_stereo_status>  (28) 
1

>  <s_m_source_file>  (28) 
/var/tmp/pbs.5076255.sched01/tmp6mkrr40i/0ze8ciewu.sdf

>  <i_m_source_file_index>  (28) 
15

>  <i_lp_mmshare_version>  (28) 
48012

>  <i_f3d_flags>  (28) 
0

>  <s_epik_input>  (28) 
W0NIM11PW0NASF0xW0NASF0yW0NASF0oT1tDSDNdKVtDSDJdW0NAQEhdMVtDQEhdKFtDQF0zKFtDSDNdKVtDSDJdW0NIMl1bQ0BASF00T1tDSDNdKVtDQF01KFtDQEhdKE9DNj1PKVtDSDJdTjVbQ0gzXSlbQ0BdNihbQ0BASF03OClbQ0BASF0yW0NIXTdbQ0BASF0oW0NIMl05KVtDSDJdW0NAQEhdOVtDQEBdMzQ4

>  <s_epik_cmdline>  (28) 
J2VwaWtfcHl0aG9uJywgJy1waHQnLCAnMi4wJywgJy1waCcsICc3LjAnLCAnLXRuJywgJzgnLCAnLW1hJywgJzIwMCcsICctaW1hZScsICc8aW5maWxlLm1hZT4nLCAnLW9tYWUnLCAnPG91dGZpbGUubWFlPic=

>  <r_epik_Ionization_Penalty>  (28) 
0.152488

>  <r_epik_Ionization_Penalty_Charging>  (28) 
0.152488

>  <r_epik_Ionization_Penalty_Neutral>  (28) 
3.24508e-11

>  <r_epik_State_Penalty>  (28) 
0.141779

>  <r_epik_Charging_Adjusted_Penalty>  (28) 
0.294266

>  <i_epik_Tot_Q>  (28) 
1

>  <i_epik_Tot_abs_Q>  (28) 
1

>  <s_epik_Chemistry_Notes>  (28) 
This compound has an ester and may undergo hydrolysis at high or low pH.

>  <s_lp_Force_Field>  (28) 
OPLS3e

>  <r_lp_Energy>  (28) 
344.527

>  <b_lp_Chiralities_Consistent>  (28) 
1

>  <s_lp_Variant>  (28) 
11:0-1

>  <s_i_glide_gridfile>  (28) 
pfpi4k_grid

>  <i_i_glide_lignum>  (28) 
15

>  <i_i_glide_rotatable_bonds>  (28) 
3

>  <r_i_docking_score>  (28) 
-2.05801

>  <r_i_glide_ligand_efficiency>  (28) 
-0.0605296

>  <r_i_glide_ligand_efficiency_sa>  (28) 
-0.196092

>  <r_i_glide_ligand_efficiency_ln>  (28) 
-0.454671

>  <r_i_glide_gscore>  (28) 
-2.05801

>  <r_i_glide_lipo>  (28) 
-0.0660553

>  <r_i_glide_hbond>  (28) 
-0.198909

>  <r_i_glide_metal>  (28) 
-0

>  <r_i_glide_rewards>  (28) 
-0.200312

>  <r_i_glide_evdw>  (28) 
-12.2342

>  <r_i_glide_ecoul>  (28) 
-6.46353

>  <r_i_glide_erotb>  (28) 
0

>  <r_i_glide_esite>  (28) 
-0.0114908

>  <r_i_glide_emodel>  (28) 
-17.6704

>  <r_i_glide_energy>  (28) 
-18.6977

>  <r_i_glide_einternal>  (28) 
5.17449

>  <r_i_glide_intrahb_reward>  (28) 
-0

>  <i_i_glide_confnum>  (28) 
2

>  <i_i_glide_posenum>  (28) 
11

>  <r_i_glide_eff_state_penalty>  (28) 
0

>  <ligand_id>  (28) 
11

>  <original_smiles>  (28) 
COC1CC2C(OC)C1C1C3C4CC(C4)C45C(OC)CCC4(C)C2C24C(CN2C)OC(=O)C14C35

>  <smiles>  (28) 
[H]C([H])([H])OC1([H])C([H])([H])C2([H])C([H])(OC([H])([H])[H])C1([H])C1([H])C3([H])C4([H])C([H])([H])C([H])(C4([H])[H])C45C([H])(OC([H])([H])[H])C([H])([H])C([H])([H])C4(C([H])([H])[H])C2([H])C24C([H])(OC(=O)C12C35[H])C([H])([H])[N+]4([H])C([H])([H])[H]

$$$$
11:0:1
     RDKit          3D

 74 82  0  0  1  0  0  0  0  0999 V2000
    2.5416    1.2947   10.3366 C   0  0  0  0  0  0  0  0  0  0  0  0
    2.2231    0.6469    9.1172 O   0  0  0  0  0  0  0  0  0  0  0  0
    0.8996    0.8214    8.6673 C   0  0  2  0  0  0  0  0  0  0  0  0
    0.3651   -0.0653    7.5070 C   0  0  0  0  0  0  0  0  0  0  0  0
   -0.1212    0.8286    6.3243 C   0  0  1  0  0  0  0  0  0  0  0  0
   -0.6006    1.9921    7.3126 C   0  0  1  0  0  0  0  0  0  0  0  0
   -1.7681    1.5617    8.0273 O   0  0  0  0  0  0  0  0  0  0  0  0
   -2.4207    2.5670    8.8037 C   0  0  0  0  0  0  0  0  0  0  0  0
    0.5964    2.2439    8.2310 C   0  0  2  0  0  0  0  0  0  0  0  0
    1.6220    3.1188    7.4723 C   0  0  1  0  0  0  0  0  0  0  0  0
    3.2153    3.0764    7.2775 C   0  0  1  0  0  0  0  0  0  0  0  0
    4.5883    2.4278    7.6586 C   0  0  2  0  0  0  0  0  0  0  0  0
    5.4824    2.3830    6.3738 C   0  0  0  0  0  0  0  0  0  0  0  0
    4.7294    1.0374    6.0231 C   0  0  1  0  0  0  0  0  0  0  0  0
    4.9607    0.9406    7.5816 C   0  0  0  0  0  0  0  0  0  0  0  0
    3.1570    0.8895    5.7106 C   0  0  2  0  0  0  0  0  0  0  0  0
    2.9444   -0.6613    6.2021 C   0  0  1  0  0  0  0  0  0  0  0  0
    2.9832   -1.1518    7.5420 O   0  0  0  0  0  0  0  0  0  0  0  0
    3.1833   -2.5477    7.7523 C   0  0  0  0  0  0  0  0  0  0  0  0
    2.1016   -1.5311    5.2454 C   0  0  0  0  0  0  0  0  0  0  0  0
    2.1431   -0.7457    3.9940 C   0  0  0  0  0  0  0  0  0  0  0  0
    2.2185    0.7195    4.4521 C   0  0  2  0  0  0  0  0  0  0  0  0
    2.8697    1.3639    3.1887 C   0  0  0  0  0  0  0  0  0  0  0  0
    0.6759    1.1980    4.8937 C   0  0  2  0  0  0  0  0  0  0  0  0
    0.5621    2.7212    4.8108 C   0  0  1  0  0  0  0  0  0  0  0  0
    0.8766    3.5776    3.5562 C   0  0  1  0  0  0  0  0  0  0  0  0
   -0.5707    3.8796    3.3314 C   0  0  0  0  0  0  0  0  0  0  0  0
   -0.8444    3.2839    4.6187 N   0  0  1  0  0  0  0  0  0  0  0  0
   -2.0752    2.4370    4.5350 C   0  0  0  0  0  0  0  0  0  0  0  0
    1.5383    4.7296    4.0576 O   0  0  0  0  0  0  0  0  0  0  0  0
    1.7398    4.7395    5.3804 C   0  0  0  0  0  0  0  0  0  0  0  0
    2.0325    5.7581    5.9989 O   0  0  0  0  0  0  0  0  0  0  0  0
    1.5016    3.3166    5.8964 C   0  0  1  0  0  0  0  0  0  0  0  0
    2.7729    2.4186    6.0262 C   0  0  1  0  0  0  0  0  0  0  0  0
    3.5867    1.0973   10.5739 H   0  0  0  0  0  0  0  0  0  0  0  0
    1.9329    0.9233   11.1613 H   0  0  0  0  0  0  0  0  0  0  0  0
    2.4212    2.3751   10.2615 H   0  0  0  0  0  0  0  0  0  0  0  0
    0.2627    0.5917    9.5238 H   0  0  0  0  0  0  0  0  0  0  0  0
    0.7936   -1.0373    7.3632 H   0  0  0  0  0  0  0  0  0  0  0  0
   -0.5619   -0.4692    7.9140 H   0  0  0  0  0  0  0  0  0  0  0  0
   -1.0226    0.3331    5.9594 H   0  0  0  0  0  0  0  0  0  0  0  0
   -0.8972    2.9442    6.9055 H   0  0  0  0  0  0  0  0  0  0  0  0
   -3.2769    2.1451    9.3305 H   0  0  0  0  0  0  0  0  0  0  0  0
   -2.7949    3.3709    8.1703 H   0  0  0  0  0  0  0  0  0  0  0  0
   -1.7786    3.0011    9.5690 H   0  0  0  0  0  0  0  0  0  0  0  0
    0.3083    2.8053    9.1197 H   0  0  0  0  0  0  0  0  0  0  0  0
    1.4752    4.1089    7.8958 H   0  0  0  0  0  0  0  0  0  0  0  0
    3.5263    4.1089    7.1305 H   0  0  0  0  0  0  0  0  0  0  0  0
    5.0749    2.9338    8.4993 H   0  0  0  0  0  0  0  0  0  0  0  0
    5.3712    3.2134    5.6818 H   0  0  0  0  0  0  0  0  0  0  0  0
    6.5556    2.2681    6.5796 H   0  0  0  0  0  0  0  0  0  0  0  0
    5.3870    0.3593    5.4765 H   0  0  0  0  0  0  0  0  0  0  0  0
    5.9897    0.7134    7.8951 H   0  0  0  0  0  0  0  0  0  0  0  0
    4.3215    0.3879    8.2393 H   0  0  0  0  0  0  0  0  0  0  0  0
    3.9005   -1.0884    5.8976 H   0  0  0  0  0  0  0  0  0  0  0  0
    3.2366   -2.7355    8.8247 H   0  0  0  0  0  0  0  0  0  0  0  0
    4.1143   -2.9014    7.3099 H   0  0  0  0  0  0  0  0  0  0  0  0
    2.3577   -3.1467    7.3679 H   0  0  0  0  0  0  0  0  0  0  0  0
    2.5388   -2.5178    5.0810 H   0  0  0  0  0  0  0  0  0  0  0  0
    1.0639   -1.6967    5.5098 H   0  0  0  0  0  0  0  0  0  0  0  0
    3.0262   -1.0610    3.4349 H   0  0  0  0  0  0  0  0  0  0  0  0
    1.2825   -0.9483    3.3533 H   0  0  0  0  0  0  0  0  0  0  0  0
    2.2285    1.2476    2.3128 H   0  0  0  0  0  0  0  0  0  0  0  0
    3.8105    0.8740    2.9342 H   0  0  0  0  0  0  0  0  0  0  0  0
    3.1489    2.4087    3.2733 H   0  0  0  0  0  0  0  0  0  0  0  0
    0.0549    0.7824    4.0970 H   0  0  0  0  0  0  0  0  0  0  0  0
    1.3072    3.1263    2.6723 H   0  0  0  0  0  0  0  0  0  0  0  0
   -0.8107    4.9402    3.2652 H   0  0  0  0  0  0  0  0  0  0  0  0
   -0.9766    3.3233    2.4830 H   0  0  0  0  0  0  0  0  0  0  0  0
   -1.9675    1.5765    3.8726 H   0  0  0  0  0  0  0  0  0  0  0  0
   -2.8962    3.0366    4.1293 H   0  0  0  0  0  0  0  0  0  0  0  0
   -2.4315    2.0969    5.5037 H   0  0  0  0  0  0  0  0  0  0  0  0
    3.3528    2.9328    5.2703 H   0  0  0  0  0  0  0  0  0  0  0  0
   -0.9799    4.0340    5.2775 H   0  0  0  0  0  0  0  0  0  0  0  0
  1  2  1  0
  1 35  1  0
  1 36  1  0
  1 37  1  0
  2  3  1  0
  3  9  1  0
  3  4  1  0
  3 38  1  1
  4  5  1  0
  4 39  1  0
  4 40  1  0
  5 24  1  0
  5  6  1  0
  5 41  1  6
  6  7  1  0
  6  9  1  0
  6 42  1  6
  7  8  1  0
  8 43  1  0
  8 44  1  0
  8 45  1  0
  9 10  1  0
  9 46  1  1
 10 33  1  0
 10 11  1  0
 10 47  1  1
 11 34  1  0
 11 12  1  0
 11 48  1  6
 12 15  1  0
 12 13  1  0
 12 49  1  1
 13 14  1  0
 13 50  1  0
 13 51  1  0
 14 15  1  0
 14 16  1  0
 14 52  1  6
 15 53  1  0
 15 54  1  0
 16 22  1  6
 16 34  1  0
 16 17  1  0
 17 18  1  0
 17 20  1  0
 17 55  1  6
 18 19  1  0
 19 56  1  0
 19 57  1  0
 19 58  1  0
 20 21  1  0
 20 59  1  0
 20 60  1  0
 21 22  1  0
 21 61  1  0
 21 62  1  0
 22 23  1  6
 22 24  1  0
 23 63  1  0
 23 64  1  0
 23 65  1  0
 24 25  1  0
 24 66  1  6
 25 28  1  0
 25 33  1  1
 25 26  1  0
 26 27  1  0
 26 30  1  0
 26 67  1  6
 27 28  1  0
 27 68  1  0
 27 69  1  0
 28 29  1  0
 28 74  1  1
 29 70  1  0
 29 71  1  0
 29 72  1  0
 30 31  1  0
 31 32  2  0
 33 31  1  1
 33 34  1  0
 34 73  1  6
M  CHG  1  28   1
M  END
>  <i_m_ct_stereo_status>  (29) 
1

>  <s_m_source_file>  (29) 
/var/tmp/pbs.5076255.sched01/tmp6mkrr40i/0ze8ciewu.sdf

>  <i_m_source_file_index>  (29) 
15

>  <i_lp_mmshare_version>  (29) 
48012

>  <i_f3d_flags>  (29) 
0

>  <s_epik_input>  (29) 
W0NIM11PW0NASF0xW0NASF0yW0NASF0oT1tDSDNdKVtDSDJdW0NAQEhdMVtDQEhdKFtDQF0zKFtDSDNdKVtDSDJdW0NIMl1bQ0BASF00T1tDSDNdKVtDQF01KFtDQEhdKE9DNj1PKVtDSDJdTjVbQ0gzXSlbQ0BdNihbQ0BASF03OClbQ0BASF0yW0NIXTdbQ0BASF0oW0NIMl05KVtDSDJdW0NAQEhdOVtDQEBdMzQ4

>  <s_epik_cmdline>  (29) 
J2VwaWtfcHl0aG9uJywgJy1waHQnLCAnMi4wJywgJy1waCcsICc3LjAnLCAnLXRuJywgJzgnLCAnLW1hJywgJzIwMCcsICctaW1hZScsICc8aW5maWxlLm1hZT4nLCAnLW9tYWUnLCAnPG91dGZpbGUubWFlPic=

>  <r_epik_Ionization_Penalty>  (29) 
0.152488

>  <r_epik_Ionization_Penalty_Charging>  (29) 
0.152488

>  <r_epik_Ionization_Penalty_Neutral>  (29) 
3.24508e-11

>  <r_epik_State_Penalty>  (29) 
0.141779

>  <r_epik_Charging_Adjusted_Penalty>  (29) 
0.294266

>  <i_epik_Tot_Q>  (29) 
1

>  <i_epik_Tot_abs_Q>  (29) 
1

>  <s_epik_Chemistry_Notes>  (29) 
This compound has an ester and may undergo hydrolysis at high or low pH.

>  <s_lp_Force_Field>  (29) 
OPLS3e

>  <r_lp_Energy>  (29) 
344.527

>  <b_lp_Chiralities_Consistent>  (29) 
1

>  <s_lp_Variant>  (29) 
11:0-1

>  <s_i_glide_gridfile>  (29) 
pfpi4k_grid

>  <i_i_glide_lignum>  (29) 
15

>  <i_i_glide_rotatable_bonds>  (29) 
3

>  <r_i_docking_score>  (29) 
-1.48422

>  <r_i_glide_ligand_efficiency>  (29) 
-0.0436535

>  <r_i_glide_ligand_efficiency_sa>  (29) 
-0.14142

>  <r_i_glide_ligand_efficiency_ln>  (29) 
-0.327906

>  <r_i_glide_gscore>  (29) 
-1.48422

>  <r_i_glide_lipo>  (29) 
-0.0302662

>  <r_i_glide_hbond>  (29) 
-0.0319768

>  <r_i_glide_metal>  (29) 
-0

>  <r_i_glide_rewards>  (29) 
-0.200312

>  <r_i_glide_evdw>  (29) 
-15.3198

>  <r_i_glide_ecoul>  (29) 
-2.84452

>  <r_i_glide_erotb>  (29) 
0

>  <r_i_glide_esite>  (29) 
-0.0289986

>  <r_i_glide_emodel>  (29) 
-19

>  <r_i_glide_energy>  (29) 
-18.1643

>  <r_i_glide_einternal>  (29) 
2.52047

>  <r_i_glide_intrahb_reward>  (29) 
-0

>  <i_i_glide_confnum>  (29) 
1

>  <i_i_glide_posenum>  (29) 
17

>  <r_i_glide_eff_state_penalty>  (29) 
0

>  <ligand_id>  (29) 
11

>  <original_smiles>  (29) 
COC1CC2C(OC)C1C1C3C4CC(C4)C45C(OC)CCC4(C)C2C24C(CN2C)OC(=O)C14C35

>  <smiles>  (29) 
[H]C([H])([H])OC1([H])C([H])([H])C2([H])C([H])(OC([H])([H])[H])C1([H])C1([H])C3([H])C4([H])C([H])([H])C([H])(C4([H])[H])C45C([H])(OC([H])([H])[H])C([H])([H])C([H])([H])C4(C([H])([H])[H])C2([H])C24C([H])(OC(=O)C12C35[H])C([H])([H])[N+]4([H])C([H])([H])[H]

$$$$
11:0:2
     RDKit          3D

 74 82  0  0  1  0  0  0  0  0999 V2000
    1.4839    3.4950   11.0089 C   0  0  0  0  0  0  0  0  0  0  0  0
    1.5538    2.5931    9.9171 O   0  0  0  0  0  0  0  0  0  0  0  0
    0.3310    2.3231    9.2751 C   0  0  2  0  0  0  0  0  0  0  0  0
    0.2452    1.1742    8.2299 C   0  0  0  0  0  0  0  0  0  0  0  0
   -0.2465    1.7348    6.8578 C   0  0  1  0  0  0  0  0  0  0  0  0
   -1.1698    2.8385    7.5634 C   0  0  1  0  0  0  0  0  0  0  0  0
   -2.2936    2.2014    8.1925 O   0  0  0  0  0  0  0  0  0  0  0  0
   -3.2370    3.0763    8.8136 C   0  0  0  0  0  0  0  0  0  0  0  0
   -0.2480    3.5327    8.5660 C   0  0  2  0  0  0  0  0  0  0  0  0
    0.6282    4.5545    7.8009 C   0  0  1  0  0  0  0  0  0  0  0  0
    2.1807    4.9387    7.8253 C   0  0  1  0  0  0  0  0  0  0  0  0
    3.5889    4.7625    8.4905 C   0  0  2  0  0  0  0  0  0  0  0  0
    4.6699    4.7991    7.3586 C   0  0  0  0  0  0  0  0  0  0  0  0
    4.3632    3.2616    7.1546 C   0  0  1  0  0  0  0  0  0  0  0  0
    4.3404    3.4416    8.7227 C   0  0  0  0  0  0  0  0  0  0  0  0
    2.9602    2.6387    6.6702 C   0  0  2  0  0  0  0  0  0  0  0  0
    3.0720    1.1691    7.3916 C   0  0  1  0  0  0  0  0  0  0  0  0
    3.0091    0.8895    8.7894 O   0  0  0  0  0  0  0  0  0  0  0  0
    3.4753   -0.3720    9.2550 C   0  0  0  0  0  0  0  0  0  0  0  0
    2.6619   -0.0217    6.4970 C   0  0  0  0  0  0  0  0  0  0  0  0
    2.7150    0.5740    5.1456 C   0  0  0  0  0  0  0  0  0  0  0  0
    2.3278    2.0481    5.3513 C   0  0  2  0  0  0  0  0  0  0  0  0
    2.9973    2.6797    4.0935 C   0  0  0  0  0  0  0  0  0  0  0  0
    0.6620    2.1206    5.4998 C   0  0  2  0  0  0  0  0  0  0  0  0
    0.1718    3.5260    5.1342 C   0  0  1  0  0  0  0  0  0  0  0  0
    0.4707    4.2656    3.8051 C   0  0  1  0  0  0  0  0  0  0  0  0
   -0.9458    4.1085    3.3438 C   0  0  0  0  0  0  0  0  0  0  0  0
   -1.2720    3.6340    4.6690 N   0  0  1  0  0  0  0  0  0  0  0  0
   -2.2047    2.4689    4.5737 C   0  0  0  0  0  0  0  0  0  0  0  0
    0.7056    5.6153    4.1788 O   0  0  0  0  0  0  0  0  0  0  0  0
    0.6616    5.8496    5.4968 C   0  0  0  0  0  0  0  0  0  0  0  0
    0.5393    6.9792    5.9658 O   0  0  0  0  0  0  0  0  0  0  0  0
    0.7265    4.5015    6.2159 C   0  0  1  0  0  0  0  0  0  0  0  0
    2.1474    4.0266    6.6610 C   0  0  1  0  0  0  0  0  0  0  0  0
    2.4854    3.6279   11.4158 H   0  0  0  0  0  0  0  0  0  0  0  0
    0.8411    3.1182   11.8034 H   0  0  0  0  0  0  0  0  0  0  0  0
    1.1268    4.4759   10.6970 H   0  0  0  0  0  0  0  0  0  0  0  0
   -0.3627    2.0411   10.0712 H   0  0  0  0  0  0  0  0  0  0  0  0
    0.9257    0.3519    8.3104 H   0  0  0  0  0  0  0  0  0  0  0  0
   -0.6040    0.5856    8.5808 H   0  0  0  0  0  0  0  0  0  0  0  0
   -0.9118    0.9613    6.4705 H   0  0  0  0  0  0  0  0  0  0  0  0
   -1.6330    3.6036    6.9609 H   0  0  0  0  0  0  0  0  0  0  0  0
   -4.0503    2.5211    9.2724 H   0  0  0  0  0  0  0  0  0  0  0  0
   -3.6814    3.7472    8.0830 H   0  0  0  0  0  0  0  0  0  0  0  0
   -2.8087    3.6649    9.6211 H   0  0  0  0  0  0  0  0  0  0  0  0
   -0.7988    4.1124    9.3019 H   0  0  0  0  0  0  0  0  0  0  0  0
    0.1529    5.5096    8.0301 H   0  0  0  0  0  0  0  0  0  0  0  0
    2.2336    5.9925    7.5443 H   0  0  0  0  0  0  0  0  0  0  0  0
    3.7760    5.4897    9.2884 H   0  0  0  0  0  0  0  0  0  0  0  0
    4.4732    5.4678    6.5220 H   0  0  0  0  0  0  0  0  0  0  0  0
    5.6837    5.0211    7.7174 H   0  0  0  0  0  0  0  0  0  0  0  0
    5.2570    2.7281    6.8193 H   0  0  0  0  0  0  0  0  0  0  0  0
    5.3219    3.5572    9.1979 H   0  0  0  0  0  0  0  0  0  0  0  0
    3.7660    2.8195    9.3787 H   0  0  0  0  0  0  0  0  0  0  0  0
    4.1450    0.9906    7.2951 H   0  0  0  0  0  0  0  0  0  0  0  0
    3.4001   -0.3950   10.3431 H   0  0  0  0  0  0  0  0  0  0  0  0
    4.5201   -0.5482    8.9931 H   0  0  0  0  0  0  0  0  0  0  0  0
    2.8727   -1.2009    8.8805 H   0  0  0  0  0  0  0  0  0  0  0  0
    3.3633   -0.8553    6.5639 H   0  0  0  0  0  0  0  0  0  0  0  0
    1.6734   -0.4366    6.6476 H   0  0  0  0  0  0  0  0  0  0  0  0
    3.7326    0.4495    4.7688 H   0  0  0  0  0  0  0  0  0  0  0  0
    2.0612    0.0539    4.4431 H   0  0  0  0  0  0  0  0  0  0  0  0
    2.5762    2.2717    3.1733 H   0  0  0  0  0  0  0  0  0  0  0  0
    4.0614    2.4470    4.0696 H   0  0  0  0  0  0  0  0  0  0  0  0
    2.9768    3.7619    4.0269 H   0  0  0  0  0  0  0  0  0  0  0  0
    0.3197    1.4500    4.7131 H   0  0  0  0  0  0  0  0  0  0  0  0
    1.1501    3.8455    3.0732 H   0  0  0  0  0  0  0  0  0  0  0  0
   -1.4393    5.0400    3.0588 H   0  0  0  0  0  0  0  0  0  0  0  0
   -1.0372    3.3515    2.5632 H   0  0  0  0  0  0  0  0  0  0  0  0
   -1.7648    1.5993    4.0870 H   0  0  0  0  0  0  0  0  0  0  0  0
   -3.0744    2.7612    3.9776 H   0  0  0  0  0  0  0  0  0  0  0  0
   -2.5983    2.1744    5.5438 H   0  0  0  0  0  0  0  0  0  0  0  0
    2.6981    4.5797    5.9063 H   0  0  0  0  0  0  0  0  0  0  0  0
   -1.7096    4.3898    5.1771 H   0  0  0  0  0  0  0  0  0  0  0  0
  1  2  1  0
  1 35  1  0
  1 36  1  0
  1 37  1  0
  2  3  1  0
  3  9  1  0
  3  4  1  0
  3 38  1  1
  4  5  1  0
  4 39  1  0
  4 40  1  0
  5 24  1  0
  5  6  1  0
  5 41  1  6
  6  7  1  0
  6  9  1  0
  6 42  1  6
  7  8  1  0
  8 43  1  0
  8 44  1  0
  8 45  1  0
  9 10  1  0
  9 46  1  1
 10 33  1  0
 10 11  1  0
 10 47  1  6
 11 34  1  0
 11 12  1  0
 11 48  1  6
 12 15  1  0
 12 13  1  0
 12 49  1  1
 13 14  1  0
 13 50  1  0
 13 51  1  0
 14 15  1  0
 14 16  1  0
 14 52  1  1
 15 53  1  0
 15 54  1  0
 16 22  1  6
 16 34  1  0
 16 17  1  0
 17 18  1  0
 17 20  1  0
 17 55  1  6
 18 19  1  0
 19 56  1  0
 19 57  1  0
 19 58  1  0
 20 21  1  0
 20 59  1  0
 20 60  1  0
 21 22  1  0
 21 61  1  0
 21 62  1  0
 22 23  1  6
 22 24  1  0
 23 63  1  0
 23 64  1  0
 23 65  1  0
 24 25  1  0
 24 66  1  6
 25 28  1  0
 25 33  1  1
 25 26  1  0
 26 27  1  0
 26 30  1  0
 26 67  1  6
 27 28  1  0
 27 68  1  0
 27 69  1  0
 28 29  1  0
 28 74  1  1
 29 70  1  0
 29 71  1  0
 29 72  1  0
 30 31  1  0
 31 32  2  0
 33 31  1  6
 33 34  1  0
 34 73  1  6
M  CHG  1  28   1
M  END
>  <i_m_ct_stereo_status>  (30) 
1

>  <s_m_source_file>  (30) 
/var/tmp/pbs.5076255.sched01/tmp6mkrr40i/0ze8ciewu.sdf

>  <i_m_source_file_index>  (30) 
15

>  <i_lp_mmshare_version>  (30) 
48012

>  <i_f3d_flags>  (30) 
0

>  <s_epik_input>  (30) 
W0NIM11PW0NASF0xW0NASF0yW0NASF0oT1tDSDNdKVtDSDJdW0NAQEhdMVtDQEhdKFtDQF0zKFtDSDNdKVtDSDJdW0NIMl1bQ0BASF00T1tDSDNdKVtDQF01KFtDQEhdKE9DNj1PKVtDSDJdTjVbQ0gzXSlbQ0BdNihbQ0BASF03OClbQ0BASF0yW0NIXTdbQ0BASF0oW0NIMl05KVtDSDJdW0NAQEhdOVtDQEBdMzQ4

>  <s_epik_cmdline>  (30) 
J2VwaWtfcHl0aG9uJywgJy1waHQnLCAnMi4wJywgJy1waCcsICc3LjAnLCAnLXRuJywgJzgnLCAnLW1hJywgJzIwMCcsICctaW1hZScsICc8aW5maWxlLm1hZT4nLCAnLW9tYWUnLCAnPG91dGZpbGUubWFlPic=

>  <r_epik_Ionization_Penalty>  (30) 
0.152488

>  <r_epik_Ionization_Penalty_Charging>  (30) 
0.152488

>  <r_epik_Ionization_Penalty_Neutral>  (30) 
3.24508e-11

>  <r_epik_State_Penalty>  (30) 
0.141779

>  <r_epik_Charging_Adjusted_Penalty>  (30) 
0.294266

>  <i_epik_Tot_Q>  (30) 
1

>  <i_epik_Tot_abs_Q>  (30) 
1

>  <s_epik_Chemistry_Notes>  (30) 
This compound has an ester and may undergo hydrolysis at high or low pH.

>  <s_lp_Force_Field>  (30) 
OPLS3e

>  <r_lp_Energy>  (30) 
344.527

>  <b_lp_Chiralities_Consistent>  (30) 
1

>  <s_lp_Variant>  (30) 
11:0-1

>  <s_i_glide_gridfile>  (30) 
pfpi4k_grid

>  <i_i_glide_lignum>  (30) 
15

>  <i_i_glide_rotatable_bonds>  (30) 
3

>  <r_i_docking_score>  (30) 
-1.31201

>  <r_i_glide_ligand_efficiency>  (30) 
-0.0385885

>  <r_i_glide_ligand_efficiency_sa>  (30) 
-0.125012

>  <r_i_glide_ligand_efficiency_ln>  (30) 
-0.28986

>  <r_i_glide_gscore>  (30) 
-1.31201

>  <r_i_glide_lipo>  (30) 
-0.00635487

>  <r_i_glide_hbond>  (30) 
0

>  <r_i_glide_metal>  (30) 
-0

>  <r_i_glide_rewards>  (30) 
-0.200312

>  <r_i_glide_evdw>  (30) 
-16.0244

>  <r_i_glide_ecoul>  (30) 
-1.65904

>  <r_i_glide_erotb>  (30) 
0

>  <r_i_glide_esite>  (30) 
-0.0552661

>  <r_i_glide_emodel>  (30) 
-17.9907

>  <r_i_glide_energy>  (30) 
-17.6835

>  <r_i_glide_einternal>  (30) 
2.75223

>  <r_i_glide_intrahb_reward>  (30) 
-0

>  <i_i_glide_confnum>  (30) 
2

>  <i_i_glide_posenum>  (30) 
6

>  <r_i_glide_eff_state_penalty>  (30) 
0

>  <ligand_id>  (30) 
11

>  <original_smiles>  (30) 
COC1CC2C(OC)C1C1C3C4CC(C4)C45C(OC)CCC4(C)C2C24C(CN2C)OC(=O)C14C35

>  <smiles>  (30) 
[H]C([H])([H])OC1([H])C([H])([H])C2([H])C([H])(OC([H])([H])[H])C1([H])C1([H])C3([H])C4([H])C([H])([H])C([H])(C4([H])[H])C45C([H])(OC([H])([H])[H])C([H])([H])C([H])([H])C4(C([H])([H])[H])C2([H])C24C([H])(OC(=O)C12C35[H])C([H])([H])[N+]4([H])C([H])([H])[H]

$$$$
11:1:0
     RDKit          3D

 74 82  0  0  1  0  0  0  0  0999 V2000
    4.9039    2.9071    8.4340 C   0  0  0  0  0  0  0  0  0  0  0  0
    3.6986    2.2696    8.0207 O   0  0  0  0  0  0  0  0  0  0  0  0
    3.6944    1.8570    6.6659 C   0  0  2  0  0  0  0  0  0  0  0  0
    3.7859    2.9366    5.5577 C   0  0  0  0  0  0  0  0  0  0  0  0
    2.9631    2.4570    4.3382 C   0  0  1  0  0  0  0  0  0  0  0  0
    2.9125    0.9042    4.7206 C   0  0  1  0  0  0  0  0  0  0  0  0
    4.1903    0.2719    4.5133 O   0  0  0  0  0  0  0  0  0  0  0  0
    4.4729   -0.2395    3.2163 C   0  0  0  0  0  0  0  0  0  0  0  0
    2.5925    0.8605    6.2269 C   0  0  2  0  0  0  0  0  0  0  0  0
    1.0809    1.1417    6.5337 C   0  0  1  0  0  0  0  0  0  0  0  0
    0.5952    2.3020    7.5443 C   0  0  2  0  0  0  0  0  0  0  0  0
   -0.6959    2.9852    8.1575 C   0  0  2  0  0  0  0  0  0  0  0  0
   -1.7396    3.8670    7.3512 C   0  0  0  0  0  0  0  0  0  0  0  0
   -0.5323    4.8554    7.1266 C   0  0  1  0  0  0  0  0  0  0  0  0
   -0.3678    4.4298    8.6350 C   0  0  0  0  0  0  0  0  0  0  0  0
    0.7759    4.5068    6.2104 C   0  0  2  0  0  0  0  0  0  0  0  0
    1.8681    5.4301    6.9063 C   0  0  1  0  0  0  0  0  0  0  0  0
    2.7021    4.8107    7.8803 O   0  0  0  0  0  0  0  0  0  0  0  0
    3.4054    5.6814    8.7769 C   0  0  0  0  0  0  0  0  0  0  0  0
    2.6102    6.2421    5.8396 C   0  0  0  0  0  0  0  0  0  0  0  0
    2.2626    5.6596    4.4749 C   0  0  0  0  0  0  0  0  0  0  0  0
    1.0988    4.6548    4.6335 C   0  0  2  0  0  0  0  0  0  0  0  0
   -0.1325    5.3348    3.9826 C   0  0  0  0  0  0  0  0  0  0  0  0
    1.5966    3.2497    3.8668 C   0  0  2  0  0  0  0  0  0  0  0  0
    0.4958    2.1650    3.9005 C   0  0  1  0  0  0  0  0  0  0  0  0
   -0.9636    2.3913    3.3924 C   0  0  1  0  0  0  0  0  0  0  0  0
   -0.7436    1.5179    2.2033 C   0  0  0  0  0  0  0  0  0  0  0  0
    0.5439    1.1162    2.7691 N   0  0  1  0  0  0  0  0  0  0  0  0
    1.6358    1.0933    1.7554 C   0  0  0  0  0  0  0  0  0  0  0  0
   -1.8328    1.7261    4.2978 O   0  0  0  0  0  0  0  0  0  0  0  0
   -1.2235    1.2271    5.3892 C   0  0  0  0  0  0  0  0  0  0  0  0
   -1.8004    0.4981    6.2001 O   0  0  0  0  0  0  0  0  0  0  0  0
    0.2208    1.7602    5.3818 C   0  0  1  0  0  0  0  0  0  0  0  0
    0.7246    3.0023    6.2893 C   0  0  1  0  0  0  0  0  0  0  0  0
    4.7768    3.2552    9.4590 H   0  0  0  0  0  0  0  0  0  0  0  0
    5.0747    3.8120    7.8498 H   0  0  0  0  0  0  0  0  0  0  0  0
    5.7827    2.2757    8.3072 H   0  0  0  0  0  0  0  0  0  0  0  0
    4.6164    1.2795    6.6117 H   0  0  0  0  0  0  0  0  0  0  0  0
    3.5272    3.9155    5.8966 H   0  0  0  0  0  0  0  0  0  0  0  0
    4.8342    3.0231    5.2781 H   0  0  0  0  0  0  0  0  0  0  0  0
    3.6079    2.5468    3.4670 H   0  0  0  0  0  0  0  0  0  0  0  0
    2.1862    0.2568    4.2498 H   0  0  0  0  0  0  0  0  0  0  0  0
    5.4349   -0.7532    3.1973 H   0  0  0  0  0  0  0  0  0  0  0  0
    4.4402    0.5400    2.4600 H   0  0  0  0  0  0  0  0  0  0  0  0
    3.7213   -0.9788    2.9391 H   0  0  0  0  0  0  0  0  0  0  0  0
    2.8564   -0.1130    6.6348 H   0  0  0  0  0  0  0  0  0  0  0  0
    0.6100    0.2134    6.8701 H   0  0  0  0  0  0  0  0  0  0  0  0
    1.4204    2.4999    8.2442 H   0  0  0  0  0  0  0  0  0  0  0  0
   -1.1690    2.4111    8.9654 H   0  0  0  0  0  0  0  0  0  0  0  0
   -2.1848    3.4389    6.4580 H   0  0  0  0  0  0  0  0  0  0  0  0
   -2.5280    4.2735    7.9750 H   0  0  0  0  0  0  0  0  0  0  0  0
   -0.8692    5.8960    7.0578 H   0  0  0  0  0  0  0  0  0  0  0  0
   -1.0745    4.8678    9.3288 H   0  0  0  0  0  0  0  0  0  0  0  0
    0.6329    4.5106    9.0525 H   0  0  0  0  0  0  0  0  0  0  0  0
    1.3341    6.1968    7.4659 H   0  0  0  0  0  0  0  0  0  0  0  0
    3.9713    5.1008    9.4599 H   0  0  0  0  0  0  0  0  0  0  0  0
    2.6835    6.3353    9.3048 H   0  0  0  0  0  0  0  0  0  0  0  0
    4.0713    6.3366    8.1909 H   0  0  0  0  0  0  0  0  0  0  0  0
    2.2951    7.2856    5.8794 H   0  0  0  0  0  0  0  0  0  0  0  0
    3.6882    6.2430    5.9943 H   0  0  0  0  0  0  0  0  0  0  0  0
    2.0437    6.4579    3.7654 H   0  0  0  0  0  0  0  0  0  0  0  0
    3.1488    5.1772    4.0656 H   0  0  0  0  0  0  0  0  0  0  0  0
   -0.1112    5.2478    2.8980 H   0  0  0  0  0  0  0  0  0  0  0  0
   -0.1618    6.4016    4.2148 H   0  0  0  0  0  0  0  0  0  0  0  0
   -1.0665    4.9237    4.3624 H   0  0  0  0  0  0  0  0  0  0  0  0
    1.7518    3.5678    2.8392 H   0  0  0  0  0  0  0  0  0  0  0  0
   -1.2561    3.3713    3.0363 H   0  0  0  0  0  0  0  0  0  0  0  0
   -1.4151    0.6658    2.0443 H   0  0  0  0  0  0  0  0  0  0  0  0
   -0.5711    2.0757    1.2868 H   0  0  0  0  0  0  0  0  0  0  0  0
    1.7470    2.0705    1.2302 H   0  0  0  0  0  0  0  0  0  0  0  0
    1.3090    0.3982    0.9637 H   0  0  0  0  0  0  0  0  0  0  0  0
    2.5263    0.7600    2.1614 H   0  0  0  0  0  0  0  0  0  0  0  0
   -0.2179    3.1811    5.8290 H   0  0  0  0  0  0  0  0  0  0  0  0
    0.4108    0.1915    3.2124 H   0  0  0  0  0  0  0  0  0  0  0  0
  1  2  1  0
  1 35  1  0
  1 36  1  0
  1 37  1  0
  2  3  1  0
  3  9  1  0
  3  4  1  0
  3 38  1  1
  4  5  1  0
  4 39  1  0
  4 40  1  0
  5 24  1  0
  5  6  1  0
  5 41  1  6
  6  7  1  0
  6  9  1  0
  6 42  1  6
  7  8  1  0
  8 43  1  0
  8 44  1  0
  8 45  1  0
  9 10  1  0
  9 46  1  1
 10 33  1  0
 10 11  1  0
 10 47  1  1
 11 34  1  0
 11 12  1  0
 11 48  1  1
 12 15  1  0
 12 13  1  0
 12 49  1  1
 13 14  1  0
 13 50  1  0
 13 51  1  0
 14 15  1  0
 14 16  1  0
 14 52  1  1
 15 53  1  0
 15 54  1  0
 16 22  1  6
 16 34  1  0
 16 17  1  0
 17 18  1  0
 17 20  1  0
 17 55  1  1
 18 19  1  0
 19 56  1  0
 19 57  1  0
 19 58  1  0
 20 21  1  0
 20 59  1  0
 20 60  1  0
 21 22  1  0
 21 61  1  0
 21 62  1  0
 22 23  1  6
 22 24  1  0
 23 63  1  0
 23 64  1  0
 23 65  1  0
 24 25  1  0
 24 66  1  6
 25 28  1  0
 25 33  1  1
 25 26  1  0
 26 27  1  0
 26 30  1  0
 26 67  1  6
 27 28  1  0
 27 68  1  0
 27 69  1  0
 28 29  1  0
 28 74  1  1
 29 70  1  0
 29 71  1  0
 29 72  1  0
 30 31  1  0
 31 32  2  0
 33 31  1  6
 33 34  1  0
 34 73  1  6
M  CHG  1  28   1
M  END
>  <i_m_ct_stereo_status>  (31) 
1

>  <s_m_source_file>  (31) 
/var/tmp/pbs.5076255.sched01/tmp6mkrr40i/0ze8ciewu.sdf

>  <i_m_source_file_index>  (31) 
16

>  <i_lp_mmshare_version>  (31) 
48012

>  <i_f3d_flags>  (31) 
0

>  <s_epik_input>  (31) 
W0NIM11PW0NASF0xW0NASF0yW0NASF0oT1tDSDNdKVtDSDJdW0NAQEhdMVtDQEhdKFtDQF0zKFtDSDNdKVtDSDJdW0NIMl1bQ0BASF00T1tDSDNdKVtDQF01KFtDQEhdKE9DNj1PKVtDSDJdTjVbQ0gzXSlbQ0BdNihbQ0BASF03OClbQ0BASF0yW0NIXTdbQ0BASF0oW0NIMl05KVtDSDJdW0NAQEhdOVtDQEBdMzQ4

>  <s_epik_cmdline>  (31) 
J2VwaWtfcHl0aG9uJywgJy1waHQnLCAnMi4wJywgJy1waCcsICc3LjAnLCAnLXRuJywgJzgnLCAnLW1hJywgJzIwMCcsICctaW1hZScsICc8aW5maWxlLm1hZT4nLCAnLW9tYWUnLCAnPG91dGZpbGUubWFlPic=

>  <r_epik_Ionization_Penalty>  (31) 
0.152488

>  <r_epik_Ionization_Penalty_Charging>  (31) 
0.152488

>  <r_epik_Ionization_Penalty_Neutral>  (31) 
3.24508e-11

>  <r_epik_State_Penalty>  (31) 
0.141779

>  <r_epik_Charging_Adjusted_Penalty>  (31) 
0.294266

>  <i_epik_Tot_Q>  (31) 
1

>  <i_epik_Tot_abs_Q>  (31) 
1

>  <s_epik_Chemistry_Notes>  (31) 
This compound has an ester and may undergo hydrolysis at high or low pH.

>  <s_lp_Force_Field>  (31) 
OPLS3e

>  <r_lp_Energy>  (31) 
320.681

>  <b_lp_Chiralities_Consistent>  (31) 
1

>  <s_lp_Variant>  (31) 
11:0-2

>  <s_i_glide_gridfile>  (31) 
pfpi4k_grid

>  <i_i_glide_lignum>  (31) 
16

>  <i_i_glide_rotatable_bonds>  (31) 
3

>  <r_i_docking_score>  (31) 
-2.37786

>  <r_i_glide_ligand_efficiency>  (31) 
-0.069937

>  <r_i_glide_ligand_efficiency_sa>  (31) 
-0.226569

>  <r_i_glide_ligand_efficiency_ln>  (31) 
-0.525336

>  <r_i_glide_gscore>  (31) 
-2.37786

>  <r_i_glide_lipo>  (31) 
-0.0984203

>  <r_i_glide_hbond>  (31) 
-0.125896

>  <r_i_glide_metal>  (31) 
-0

>  <r_i_glide_rewards>  (31) 
-0.200312

>  <r_i_glide_evdw>  (31) 
-18.8879

>  <r_i_glide_ecoul>  (31) 
-6.31146

>  <r_i_glide_erotb>  (31) 
0

>  <r_i_glide_esite>  (31) 
-0.062118

>  <r_i_glide_emodel>  (31) 
-28.5993

>  <r_i_glide_energy>  (31) 
-25.1993

>  <r_i_glide_einternal>  (31) 
0.460355

>  <r_i_glide_intrahb_reward>  (31) 
-0

>  <i_i_glide_confnum>  (31) 
1

>  <i_i_glide_posenum>  (31) 
33

>  <r_i_glide_eff_state_penalty>  (31) 
0

>  <ligand_id>  (31) 
11

>  <original_smiles>  (31) 
COC1CC2C(OC)C1C1C3C4CC(C4)C45C(OC)CCC4(C)C2C24C(CN2C)OC(=O)C14C35

>  <smiles>  (31) 
[H]C([H])([H])OC1([H])C([H])([H])C2([H])C([H])(OC([H])([H])[H])C1([H])C1([H])C3([H])C4([H])C([H])([H])C([H])(C4([H])[H])C45C([H])(OC([H])([H])[H])C([H])([H])C([H])([H])C4(C([H])([H])[H])C2([H])C24C([H])(OC(=O)C12C35[H])C([H])([H])[N+]4([H])C([H])([H])[H]

$$$$
11:1:1
     RDKit          3D

 74 82  0  0  1  0  0  0  0  0999 V2000
    5.6948   -0.9761    6.8455 C   0  0  0  0  0  0  0  0  0  0  0  0
    4.3011   -1.0771    6.5946 O   0  0  0  0  0  0  0  0  0  0  0  0
    3.9287   -0.6963    5.2793 C   0  0  2  0  0  0  0  0  0  0  0  0
    4.1186    0.7889    4.8518 C   0  0  0  0  0  0  0  0  0  0  0  0
    2.9858    1.1574    3.8510 C   0  0  1  0  0  0  0  0  0  0  0  0
    2.5878   -0.3417    3.4463 C   0  0  1  0  0  0  0  0  0  0  0  0
    3.5924   -0.9426    2.6138 O   0  0  0  0  0  0  0  0  0  0  0  0
    3.6059   -0.6043    1.2278 C   0  0  0  0  0  0  0  0  0  0  0  0
    2.5456   -1.1239    4.7718 C   0  0  2  0  0  0  0  0  0  0  0  0
    1.2142   -0.8622    5.6069 C   0  0  1  0  0  0  0  0  0  0  0  0
    1.3197   -0.3480    7.1398 C   0  0  2  0  0  0  0  0  0  0  0  0
    0.3566    0.0902    8.3731 C   0  0  2  0  0  0  0  0  0  0  0  0
   -0.5123    1.4118    8.3942 C   0  0  0  0  0  0  0  0  0  0  0  0
    0.8517    2.2009    8.3398 C   0  0  1  0  0  0  0  0  0  0  0  0
    1.1697    1.0204    9.3122 C   0  0  0  0  0  0  0  0  0  0  0  0
    1.8502    2.1836    7.0180 C   0  0  2  0  0  0  0  0  0  0  0  0
    3.2466    2.4260    7.7083 C   0  0  1  0  0  0  0  0  0  0  0  0
    4.0375    1.2779    7.9900 O   0  0  0  0  0  0  0  0  0  0  0  0
    5.0711    1.5020    8.9499 C   0  0  0  0  0  0  0  0  0  0  0  0
    3.9718    3.5678    6.9884 C   0  0  0  0  0  0  0  0  0  0  0  0
    3.2380    3.8505    5.6804 C   0  0  0  0  0  0  0  0  0  0  0  0
    1.8876    3.0862    5.6809 C   0  0  2  0  0  0  0  0  0  0  0  0
    0.7999    4.1838    5.8361 C   0  0  0  0  0  0  0  0  0  0  0  0
    1.8304    2.2475    4.2462 C   0  0  2  0  0  0  0  0  0  0  0  0
    0.4680    1.4905    4.1011 C   0  0  1  0  0  0  0  0  0  0  0  0
   -0.9183    2.1732    4.1867 C   0  0  1  0  0  0  0  0  0  0  0  0
   -1.1657    2.0117    2.7309 C   0  0  0  0  0  0  0  0  0  0  0  0
    0.0256    1.1764    2.6806 N   0  0  1  0  0  0  0  0  0  0  0  0
    0.8253    1.5394    1.4887 C   0  0  0  0  0  0  0  0  0  0  0  0
   -1.7609    1.2662    4.9137 O   0  0  0  0  0  0  0  0  0  0  0  0
   -1.1341    0.1783    5.3952 C   0  0  0  0  0  0  0  0  0  0  0  0
   -1.7204   -0.7790    5.8873 O   0  0  0  0  0  0  0  0  0  0  0  0
    0.4026    0.4056    5.2075 C   0  0  1  0  0  0  0  0  0  0  0  0
    1.3626    0.8793    6.3828 C   0  0  1  0  0  0  0  0  0  0  0  0
    5.8919   -1.2986    7.8700 H   0  0  0  0  0  0  0  0  0  0  0  0
    6.0290    0.0567    6.7605 H   0  0  0  0  0  0  0  0  0  0  0  0
    6.2959   -1.5828    6.1542 H   0  0  0  0  0  0  0  0  0  0  0  0
    4.6245   -1.2756    4.6747 H   0  0  0  0  0  0  0  0  0  0  0  0
    4.2183    1.4602    5.6715 H   0  0  0  0  0  0  0  0  0  0  0  0
    5.0717    0.8585    4.3290 H   0  0  0  0  0  0  0  0  0  0  0  0
    3.4657    1.6252    2.9928 H   0  0  0  0  0  0  0  0  0  0  0  0
    1.6409   -0.5249    2.9475 H   0  0  0  0  0  0  0  0  0  0  0  0
    4.4071   -1.1308    0.7029 H   0  0  0  0  0  0  0  0  0  0  0  0
    3.7709    0.4622    1.0865 H   0  0  0  0  0  0  0  0  0  0  0  0
    2.6659   -0.8957    0.7616 H   0  0  0  0  0  0  0  0  0  0  0  0
    2.5876   -2.2048    4.5733 H   0  0  0  0  0  0  0  0  0  0  0  0
    0.5963   -1.7448    5.6025 H   0  0  0  0  0  0  0  0  0  0  0  0
    2.2571   -0.6679    7.5739 H   0  0  0  0  0  0  0  0  0  0  0  0
   -0.0833   -0.7393    8.9115 H   0  0  0  0  0  0  0  0  0  0  0  0
   -1.2295    1.6004    7.6075 H   0  0  0  0  0  0  0  0  0  0  0  0
   -1.0423    1.5595    9.3543 H   0  0  0  0  0  0  0  0  0  0  0  0
    0.8057    3.1619    8.8517 H   0  0  0  0  0  0  0  0  0  0  0  0
    0.7389    1.1282   10.3290 H   0  0  0  0  0  0  0  0  0  0  0  0
    2.1957    0.7159    9.4397 H   0  0  0  0  0  0  0  0  0  0  0  0
    3.0387    2.8649    8.6861 H   0  0  0  0  0  0  0  0  0  0  0  0
    5.6097    0.5678    9.1504 H   0  0  0  0  0  0  0  0  0  0  0  0
    4.6729    1.8963    9.8971 H   0  0  0  0  0  0  0  0  0  0  0  0
    5.7962    2.2290    8.5751 H   0  0  0  0  0  0  0  0  0  0  0  0
    3.9596    4.4646    7.6067 H   0  0  0  0  0  0  0  0  0  0  0  0
    5.0178    3.3376    6.7929 H   0  0  0  0  0  0  0  0  0  0  0  0
    3.1220    4.9287    5.5362 H   0  0  0  0  0  0  0  0  0  0  0  0
    3.8626    3.5371    4.8427 H   0  0  0  0  0  0  0  0  0  0  0  0
    0.6047    4.6831    4.8840 H   0  0  0  0  0  0  0  0  0  0  0  0
    1.1072    4.9573    6.5451 H   0  0  0  0  0  0  0  0  0  0  0  0
   -0.1349    3.7846    6.2302 H   0  0  0  0  0  0  0  0  0  0  0  0
    1.8737    3.0423    3.5002 H   0  0  0  0  0  0  0  0  0  0  0  0
   -0.9795    3.2138    4.4687 H   0  0  0  0  0  0  0  0  0  0  0  0
   -2.0455    1.4813    2.4171 H   0  0  0  0  0  0  0  0  0  0  0  0
   -1.0394    2.9633    2.2103 H   0  0  0  0  0  0  0  0  0  0  0  0
    1.1655    2.5734    1.4946 H   0  0  0  0  0  0  0  0  0  0  0  0
    0.1755    1.4192    0.5966 H   0  0  0  0  0  0  0  0  0  0  0  0
    1.7144    0.9094    1.3906 H   0  0  0  0  0  0  0  0  0  0  0  0
    0.4520    1.4234    6.3836 H   0  0  0  0  0  0  0  0  0  0  0  0
   -0.2496    0.2197    2.6393 H   0  0  0  0  0  0  0  0  0  0  0  0
  1  2  1  0
  1 35  1  0
  1 36  1  0
  1 37  1  0
  2  3  1  0
  3  9  1  0
  3  4  1  0
  3 38  1  6
  4  5  1  0
  4 39  1  0
  4 40  1  0
  5 24  1  0
  5  6  1  0
  5 41  1  6
  6  7  1  0
  6  9  1  0
  6 42  1  6
  7  8  1  0
  8 43  1  0
  8 44  1  0
  8 45  1  0
  9 10  1  0
  9 46  1  6
 10 33  1  0
 10 11  1  0
 10 47  1  1
 11 34  1  0
 11 12  1  0
 11 48  1  1
 12 15  1  0
 12 13  1  0
 12 49  1  1
 13 14  1  0
 13 50  1  0
 13 51  1  0
 14 15  1  0
 14 16  1  0
 14 52  1  1
 15 53  1  0
 15 54  1  0
 16 22  1  6
 16 34  1  0
 16 17  1  0
 17 18  1  0
 17 20  1  0
 17 55  1  1
 18 19  1  0
 19 56  1  0
 19 57  1  0
 19 58  1  0
 20 21  1  0
 20 59  1  0
 20 60  1  0
 21 22  1  0
 21 61  1  0
 21 62  1  0
 22 23  1  1
 22 24  1  0
 23 63  1  0
 23 64  1  0
 23 65  1  0
 24 25  1  0
 24 66  1  6
 25 28  1  0
 25 33  1  1
 25 26  1  0
 26 27  1  0
 26 30  1  0
 26 67  1  1
 27 28  1  0
 27 68  1  0
 27 69  1  0
 28 29  1  0
 28 74  1  1
 29 70  1  0
 29 71  1  0
 29 72  1  0
 30 31  1  0
 31 32  2  0
 33 31  1  1
 33 34  1  0
 34 73  1  6
M  CHG  1  28   1
M  END
>  <i_m_ct_stereo_status>  (32) 
1

>  <s_m_source_file>  (32) 
/var/tmp/pbs.5076255.sched01/tmp6mkrr40i/0ze8ciewu.sdf

>  <i_m_source_file_index>  (32) 
16

>  <i_lp_mmshare_version>  (32) 
48012

>  <i_f3d_flags>  (32) 
0

>  <s_epik_input>  (32) 
W0NIM11PW0NASF0xW0NASF0yW0NASF0oT1tDSDNdKVtDSDJdW0NAQEhdMVtDQEhdKFtDQF0zKFtDSDNdKVtDSDJdW0NIMl1bQ0BASF00T1tDSDNdKVtDQF01KFtDQEhdKE9DNj1PKVtDSDJdTjVbQ0gzXSlbQ0BdNihbQ0BASF03OClbQ0BASF0yW0NIXTdbQ0BASF0oW0NIMl05KVtDSDJdW0NAQEhdOVtDQEBdMzQ4

>  <s_epik_cmdline>  (32) 
J2VwaWtfcHl0aG9uJywgJy1waHQnLCAnMi4wJywgJy1waCcsICc3LjAnLCAnLXRuJywgJzgnLCAnLW1hJywgJzIwMCcsICctaW1hZScsICc8aW5maWxlLm1hZT4nLCAnLW9tYWUnLCAnPG91dGZpbGUubWFlPic=

>  <r_epik_Ionization_Penalty>  (32) 
0.152488

>  <r_epik_Ionization_Penalty_Charging>  (32) 
0.152488

>  <r_epik_Ionization_Penalty_Neutral>  (32) 
3.24508e-11

>  <r_epik_State_Penalty>  (32) 
0.141779

>  <r_epik_Charging_Adjusted_Penalty>  (32) 
0.294266

>  <i_epik_Tot_Q>  (32) 
1

>  <i_epik_Tot_abs_Q>  (32) 
1

>  <s_epik_Chemistry_Notes>  (32) 
This compound has an ester and may undergo hydrolysis at high or low pH.

>  <s_lp_Force_Field>  (32) 
OPLS3e

>  <r_lp_Energy>  (32) 
320.681

>  <b_lp_Chiralities_Consistent>  (32) 
1

>  <s_lp_Variant>  (32) 
11:0-2

>  <s_i_glide_gridfile>  (32) 
pfpi4k_grid

>  <i_i_glide_lignum>  (32) 
16

>  <i_i_glide_rotatable_bonds>  (32) 
3

>  <r_i_docking_score>  (32) 
-2.23339

>  <r_i_glide_ligand_efficiency>  (32) 
-0.0656879

>  <r_i_glide_ligand_efficiency_sa>  (32) 
-0.212803

>  <r_i_glide_ligand_efficiency_ln>  (32) 
-0.493418

>  <r_i_glide_gscore>  (32) 
-2.23339

>  <r_i_glide_lipo>  (32) 
-0.0171314

>  <r_i_glide_hbond>  (32) 
-0.0785006

>  <r_i_glide_metal>  (32) 
-0

>  <r_i_glide_rewards>  (32) 
-0.200312

>  <r_i_glide_evdw>  (32) 
-16.6146

>  <r_i_glide_ecoul>  (32) 
-6.80706

>  <r_i_glide_erotb>  (32) 
0

>  <r_i_glide_esite>  (32) 
-0.0856524

>  <r_i_glide_emodel>  (32) 
-26.9605

>  <r_i_glide_energy>  (32) 
-23.4217

>  <r_i_glide_einternal>  (32) 
0.445448

>  <r_i_glide_intrahb_reward>  (32) 
-0

>  <i_i_glide_confnum>  (32) 
2

>  <i_i_glide_posenum>  (32) 
30

>  <r_i_glide_eff_state_penalty>  (32) 
0

>  <ligand_id>  (32) 
11

>  <original_smiles>  (32) 
COC1CC2C(OC)C1C1C3C4CC(C4)C45C(OC)CCC4(C)C2C24C(CN2C)OC(=O)C14C35

>  <smiles>  (32) 
[H]C([H])([H])OC1([H])C([H])([H])C2([H])C([H])(OC([H])([H])[H])C1([H])C1([H])C3([H])C4([H])C([H])([H])C([H])(C4([H])[H])C45C([H])(OC([H])([H])[H])C([H])([H])C([H])([H])C4(C([H])([H])[H])C2([H])C24C([H])(OC(=O)C12C35[H])C([H])([H])[N+]4([H])C([H])([H])[H]

$$$$
11:1:2
     RDKit          3D

 74 82  0  0  1  0  0  0  0  0999 V2000
    0.4995   -3.0445    8.8754 C   0  0  0  0  0  0  0  0  0  0  0  0
   -0.1366   -2.2047    7.9207 O   0  0  0  0  0  0  0  0  0  0  0  0
    0.4765   -2.2325    6.6382 C   0  0  2  0  0  0  0  0  0  0  0  0
    1.9441   -1.7432    6.4980 C   0  0  0  0  0  0  0  0  0  0  0  0
    2.1092   -1.0940    5.0995 C   0  0  1  0  0  0  0  0  0  0  0  0
    0.8263   -1.7552    4.4095 C   0  0  1  0  0  0  0  0  0  0  0  0
    1.0451   -3.1549    4.1384 O   0  0  0  0  0  0  0  0  0  0  0  0
    1.8661   -3.5063    3.0310 C   0  0  0  0  0  0  0  0  0  0  0  0
   -0.3070   -1.6429    5.4516 C   0  0  2  0  0  0  0  0  0  0  0  0
   -0.9157   -0.1739    5.5234 C   0  0  1  0  0  0  0  0  0  0  0  0
   -0.9883    0.6425    6.9127 C   0  0  2  0  0  0  0  0  0  0  0  0
   -1.4420    2.0493    7.5160 C   0  0  2  0  0  0  0  0  0  0  0  0
   -0.7281    3.4263    7.2204 C   0  0  0  0  0  0  0  0  0  0  0  0
    0.5337    2.8107    7.9250 C   0  0  1  0  0  0  0  0  0  0  0  0
   -0.6624    2.3186    8.8390 C   0  0  0  0  0  0  0  0  0  0  0  0
    1.4011    1.5647    7.3104 C   0  0  2  0  0  0  0  0  0  0  0  0
    1.9663    0.9217    8.6319 C   0  0  1  0  0  0  0  0  0  0  0  0
    1.2483   -0.1880    9.1713 O   0  0  0  0  0  0  0  0  0  0  0  0
    1.5164   -0.4829   10.5430 C   0  0  0  0  0  0  0  0  0  0  0  0
    3.4824    0.7048    8.4907 C   0  0  0  0  0  0  0  0  0  0  0  0
    3.8516    0.8979    7.0269 C   0  0  0  0  0  0  0  0  0  0  0  0
    2.6321    1.4979    6.2707 C   0  0  2  0  0  0  0  0  0  0  0  0
    3.0364    2.9556    5.9315 C   0  0  0  0  0  0  0  0  0  0  0  0
    2.3998    0.5146    4.9334 C   0  0  2  0  0  0  0  0  0  0  0  0
    1.2473    1.0411    4.0297 C   0  0  1  0  0  0  0  0  0  0  0  0
    1.1639    2.4859    3.4810 C   0  0  1  0  0  0  0  0  0  0  0  0
    1.4553    2.0096    2.0840 C   0  0  0  0  0  0  0  0  0  0  0  0
    1.2973    0.6510    2.5562 N   0  0  1  0  0  0  0  0  0  0  0  0
    2.3748   -0.2154    1.9948 C   0  0  0  0  0  0  0  0  0  0  0  0
   -0.1848    2.9045    3.5703 O   0  0  0  0  0  0  0  0  0  0  0  0
   -0.9837    2.0477    4.2182 C   0  0  0  0  0  0  0  0  0  0  0  0
   -2.1884    2.1787    4.2831 O   0  0  0  0  0  0  0  0  0  0  0  0
   -0.0890    0.9573    4.8571 C   0  0  1  0  0  0  0  0  0  0  0  0
    0.3421    0.9712    6.4122 C   0  0  1  0  0  0  0  0  0  0  0  0
   -0.0105   -2.9163    9.8409 H   0  0  0  0  0  0  0  0  0  0  0  0
    1.5348   -2.7240    9.0419 H   0  0  0  0  0  0  0  0  0  0  0  0
    0.5235   -4.0814    8.5847 H   0  0  0  0  0  0  0  0  0  0  0  0
    0.4979   -3.3092    6.4381 H   0  0  0  0  0  0  0  0  0  0  0  0
    2.2680   -1.1266    7.3027 H   0  0  0  0  0  0  0  0  0  0  0  0
    2.5915   -2.6164    6.5491 H   0  0  0  0  0  0  0  0  0  0  0  0
    3.0051   -1.5345    4.6647 H   0  0  0  0  0  0  0  0  0  0  0  0
    0.4381   -1.3525    3.4862 H   0  0  0  0  0  0  0  0  0  0  0  0
    1.9688   -4.5678    2.9287 H   0  0  0  0  0  0  0  0  0  0  0  0
    2.8711   -3.0740    3.1185 H   0  0  0  0  0  0  0  0  0  0  0  0
    1.4270   -3.1169    2.0970 H   0  0  0  0  0  0  0  0  0  0  0  0
   -1.1136   -2.3281    5.2090 H   0  0  0  0  0  0  0  0  0  0  0  0
   -1.9288   -0.1977    5.1018 H   0  0  0  0  0  0  0  0  0  0  0  0
   -0.9698   -0.0594    7.7473 H   0  0  0  0  0  0  0  0  0  0  0  0
   -2.5188    2.1426    7.6618 H   0  0  0  0  0  0  0  0  0  0  0  0
   -0.6042    3.7441    6.1876 H   0  0  0  0  0  0  0  0  0  0  0  0
   -1.1707    4.2753    7.7705 H   0  0  0  0  0  0  0  0  0  0  0  0
    1.1362    3.5711    8.4405 H   0  0  0  0  0  0  0  0  0  0  0  0
   -1.0963    3.0812    9.4876 H   0  0  0  0  0  0  0  0  0  0  0  0
   -0.4986    1.4315    9.4320 H   0  0  0  0  0  0  0  0  0  0  0  0
    1.9126    1.6809    9.4116 H   0  0  0  0  0  0  0  0  0  0  0  0
    0.9121   -1.3187   10.8590 H   0  0  0  0  0  0  0  0  0  0  0  0
    1.3180    0.3806   11.1750 H   0  0  0  0  0  0  0  0  0  0  0  0
    2.5696   -0.7532   10.6630 H   0  0  0  0  0  0  0  0  0  0  0  0
    4.0212    1.4364    9.0979 H   0  0  0  0  0  0  0  0  0  0  0  0
    3.7966   -0.2734    8.8419 H   0  0  0  0  0  0  0  0  0  0  0  0
    4.7524    1.5076    6.9366 H   0  0  0  0  0  0  0  0  0  0  0  0
    4.1405   -0.0670    6.6084 H   0  0  0  0  0  0  0  0  0  0  0  0
    3.6861    3.0046    5.0579 H   0  0  0  0  0  0  0  0  0  0  0  0
    3.5703    3.4236    6.7609 H   0  0  0  0  0  0  0  0  0  0  0  0
    2.1612    3.5895    5.7644 H   0  0  0  0  0  0  0  0  0  0  0  0
    3.3310    0.6134    4.3864 H   0  0  0  0  0  0  0  0  0  0  0  0
    1.9132    3.2192    3.7716 H   0  0  0  0  0  0  0  0  0  0  0  0
    0.7161    2.2189    1.3039 H   0  0  0  0  0  0  0  0  0  0  0  0
    2.4706    2.2168    1.7709 H   0  0  0  0  0  0  0  0  0  0  0  0
    3.3873    0.1571    2.2393 H   0  0  0  0  0  0  0  0  0  0  0  0
    2.2796   -0.1829    0.8916 H   0  0  0  0  0  0  0  0  0  0  0  0
    2.2520   -1.2180    2.3205 H   0  0  0  0  0  0  0  0  0  0  0  0
    0.3940    1.9432    5.9803 H   0  0  0  0  0  0  0  0  0  0  0  0
    0.3744    0.3356    2.2735 H   0  0  0  0  0  0  0  0  0  0  0  0
  1  2  1  0
  1 35  1  0
  1 36  1  0
  1 37  1  0
  2  3  1  0
  3  9  1  0
  3  4  1  0
  3 38  1  6
  4  5  1  0
  4 39  1  0
  4 40  1  0
  5 24  1  0
  5  6  1  0
  5 41  1  6
  6  7  1  0
  6  9  1  0
  6 42  1  6
  7  8  1  0
  8 43  1  0
  8 44  1  0
  8 45  1  0
  9 10  1  0
  9 46  1  6
 10 33  1  0
 10 11  1  0
 10 47  1  6
 11 34  1  0
 11 12  1  0
 11 48  1  1
 12 15  1  0
 12 13  1  0
 12 49  1  1
 13 14  1  0
 13 50  1  0
 13 51  1  0
 14 15  1  0
 14 16  1  0
 14 52  1  1
 15 53  1  0
 15 54  1  0
 16 22  1  6
 16 34  1  0
 16 17  1  0
 17 18  1  0
 17 20  1  0
 17 55  1  1
 18 19  1  0
 19 56  1  0
 19 57  1  0
 19 58  1  0
 20 21  1  0
 20 59  1  0
 20 60  1  0
 21 22  1  0
 21 61  1  0
 21 62  1  0
 22 23  1  6
 22 24  1  0
 23 63  1  0
 23 64  1  0
 23 65  1  0
 24 25  1  0
 24 66  1  6
 25 28  1  0
 25 33  1  1
 25 26  1  0
 26 27  1  0
 26 30  1  0
 26 67  1  1
 27 28  1  0
 27 68  1  0
 27 69  1  0
 28 29  1  0
 28 74  1  6
 29 70  1  0
 29 71  1  0
 29 72  1  0
 30 31  1  0
 31 32  2  0
 33 31  1  1
 33 34  1  0
 34 73  1  6
M  CHG  1  28   1
M  END
>  <i_m_ct_stereo_status>  (33) 
1

>  <s_m_source_file>  (33) 
/var/tmp/pbs.5076255.sched01/tmp6mkrr40i/0ze8ciewu.sdf

>  <i_m_source_file_index>  (33) 
16

>  <i_lp_mmshare_version>  (33) 
48012

>  <i_f3d_flags>  (33) 
0

>  <s_epik_input>  (33) 
W0NIM11PW0NASF0xW0NASF0yW0NASF0oT1tDSDNdKVtDSDJdW0NAQEhdMVtDQEhdKFtDQF0zKFtDSDNdKVtDSDJdW0NIMl1bQ0BASF00T1tDSDNdKVtDQF01KFtDQEhdKE9DNj1PKVtDSDJdTjVbQ0gzXSlbQ0BdNihbQ0BASF03OClbQ0BASF0yW0NIXTdbQ0BASF0oW0NIMl05KVtDSDJdW0NAQEhdOVtDQEBdMzQ4

>  <s_epik_cmdline>  (33) 
J2VwaWtfcHl0aG9uJywgJy1waHQnLCAnMi4wJywgJy1waCcsICc3LjAnLCAnLXRuJywgJzgnLCAnLW1hJywgJzIwMCcsICctaW1hZScsICc8aW5maWxlLm1hZT4nLCAnLW9tYWUnLCAnPG91dGZpbGUubWFlPic=

>  <r_epik_Ionization_Penalty>  (33) 
0.152488

>  <r_epik_Ionization_Penalty_Charging>  (33) 
0.152488

>  <r_epik_Ionization_Penalty_Neutral>  (33) 
3.24508e-11

>  <r_epik_State_Penalty>  (33) 
0.141779

>  <r_epik_Charging_Adjusted_Penalty>  (33) 
0.294266

>  <i_epik_Tot_Q>  (33) 
1

>  <i_epik_Tot_abs_Q>  (33) 
1

>  <s_epik_Chemistry_Notes>  (33) 
This compound has an ester and may undergo hydrolysis at high or low pH.

>  <s_lp_Force_Field>  (33) 
OPLS3e

>  <r_lp_Energy>  (33) 
320.681

>  <b_lp_Chiralities_Consistent>  (33) 
1

>  <s_lp_Variant>  (33) 
11:0-2

>  <s_i_glide_gridfile>  (33) 
pfpi4k_grid

>  <i_i_glide_lignum>  (33) 
16

>  <i_i_glide_rotatable_bonds>  (33) 
3

>  <r_i_docking_score>  (33) 
-2.08794

>  <r_i_glide_ligand_efficiency>  (33) 
-0.0614101

>  <r_i_glide_ligand_efficiency_sa>  (33) 
-0.198945

>  <r_i_glide_ligand_efficiency_ln>  (33) 
-0.461285

>  <r_i_glide_gscore>  (33) 
-2.08794

>  <r_i_glide_lipo>  (33) 
-0.00645969

>  <r_i_glide_hbond>  (33) 
-0.1064

>  <r_i_glide_metal>  (33) 
-0

>  <r_i_glide_rewards>  (33) 
-0.200312

>  <r_i_glide_evdw>  (33) 
-17.1871

>  <r_i_glide_ecoul>  (33) 
-5.76279

>  <r_i_glide_erotb>  (33) 
0

>  <r_i_glide_esite>  (33) 
-0.0509975

>  <r_i_glide_emodel>  (33) 
-26.2329

>  <r_i_glide_energy>  (33) 
-22.9499

>  <r_i_glide_einternal>  (33) 
0.489616

>  <r_i_glide_intrahb_reward>  (33) 
-0

>  <i_i_glide_confnum>  (33) 
1

>  <i_i_glide_posenum>  (33) 
11

>  <r_i_glide_eff_state_penalty>  (33) 
0

>  <ligand_id>  (33) 
11

>  <original_smiles>  (33) 
COC1CC2C(OC)C1C1C3C4CC(C4)C45C(OC)CCC4(C)C2C24C(CN2C)OC(=O)C14C35

>  <smiles>  (33) 
[H]C([H])([H])OC1([H])C([H])([H])C2([H])C([H])(OC([H])([H])[H])C1([H])C1([H])C3([H])C4([H])C([H])([H])C([H])(C4([H])[H])C45C([H])(OC([H])([H])[H])C([H])([H])C([H])([H])C4(C([H])([H])[H])C2([H])C24C([H])(OC(=O)C12C35[H])C([H])([H])[N+]4([H])C([H])([H])[H]

$$$$
12:0:0
     RDKit          3D

 35 38  0  0  1  0  0  0  0  0999 V2000
    1.5065   -7.7140    1.6874 C   0  0  0  0  0  0  0  0  0  0  0  0
    2.5870   -6.7065    2.1004 C   0  0  2  0  0  0  0  0  0  0  0  0
    1.9731   -5.4528    2.7450 C   0  0  0  0  0  0  0  0  0  0  0  0
    3.0276   -4.3720    2.9895 C   0  0  0  0  0  0  0  0  0  0  0  0
    3.8686   -4.1161    1.7320 C   0  0  2  0  0  0  0  0  0  0  0  0
    3.1462   -3.4453    0.6982 O   0  0  0  0  0  0  0  0  0  0  0  0
    3.6657   -3.8175   -0.5832 C   0  0  2  0  0  0  0  0  0  0  0  0
    4.7028   -4.9133   -0.3197 C   0  0  1  0  0  0  0  0  0  0  0  0
    5.9557   -4.2411   -0.4439 O   0  0  0  0  0  0  0  0  0  0  0  0
    5.8713   -3.0258   -1.0058 C   0  0  0  0  0  0  0  0  0  0  0  0
    6.8139   -2.2764   -1.2711 O   0  0  0  0  0  0  0  0  0  0  0  0
    4.4303   -2.7083   -1.2559 C   0  0  0  0  0  0  0  0  0  0  0  0
    4.0151   -2.1182   -2.5919 C   0  0  0  0  0  0  0  0  0  0  0  0
    3.9911   -1.2687   -1.3489 C   0  0  0  0  0  0  0  0  0  0  0  0
    4.3737   -5.4082    1.0767 C   0  0  1  0  0  0  0  0  0  0  0  0
    5.5676   -6.0847    1.7850 C   0  0  0  0  0  0  0  0  0  0  0  0
    3.3057   -6.3507    0.9196 O   0  0  0  0  0  0  0  0  0  0  0  0
    0.9010   -8.0226    2.5439 H   0  0  0  0  0  0  0  0  0  0  0  0
    1.9551   -8.6105    1.2599 H   0  0  0  0  0  0  0  0  0  0  0  0
    0.8369   -7.2925    0.9380 H   0  0  0  0  0  0  0  0  0  0  0  0
    3.2589   -7.1877    2.8114 H   0  0  0  0  0  0  0  0  0  0  0  0
    1.2005   -5.0494    2.0908 H   0  0  0  0  0  0  0  0  0  0  0  0
    1.4857   -5.7152    3.6863 H   0  0  0  0  0  0  0  0  0  0  0  0
    2.5575   -3.4482    3.3233 H   0  0  0  0  0  0  0  0  0  0  0  0
    3.6862   -4.6930    3.7989 H   0  0  0  0  0  0  0  0  0  0  0  0
    4.7142   -3.4804    1.9910 H   0  0  0  0  0  0  0  0  0  0  0  0
    2.8483   -4.1630   -1.2148 H   0  0  0  0  0  0  0  0  0  0  0  0
    4.6638   -5.7132   -1.0620 H   0  0  0  0  0  0  0  0  0  0  0  0
    4.7911   -1.9133   -3.3252 H   0  0  0  0  0  0  0  0  0  0  0  0
    3.0463   -2.4033   -2.9967 H   0  0  0  0  0  0  0  0  0  0  0  0
    3.0160   -1.0278   -0.9341 H   0  0  0  0  0  0  0  0  0  0  0  0
    4.7360   -0.4806   -1.2575 H   0  0  0  0  0  0  0  0  0  0  0  0
    6.4312   -5.4254    1.8403 H   0  0  0  0  0  0  0  0  0  0  0  0
    5.8764   -6.9862    1.2556 H   0  0  0  0  0  0  0  0  0  0  0  0
    5.3323   -6.3705    2.8072 H   0  0  0  0  0  0  0  0  0  0  0  0
  1  2  1  0
  1 18  1  0
  1 19  1  0
  1 20  1  0
  2 17  1  0
  2  3  1  0
  2 21  1  1
  3  4  1  0
  3 22  1  0
  3 23  1  0
  4  5  1  0
  4 24  1  0
  4 25  1  0
  5 15  1  0
  5  6  1  0
  5 26  1  1
  6  7  1  0
  7 12  1  0
  7  8  1  0
  7 27  1  6
  8  9  1  0
  8 15  1  0
  8 28  1  6
  9 10  1  0
 10 11  2  0
 10 12  1  0
 12 14  1  0
 12 13  1  0
 13 14  1  0
 13 29  1  0
 13 30  1  0
 14 31  1  0
 14 32  1  0
 15 16  1  1
 15 17  1  0
 16 33  1  0
 16 34  1  0
 16 35  1  0
M  END
>  <i_m_ct_stereo_status>  (34) 
1

>  <s_m_source_file>  (34) 
/var/tmp/pbs.5076255.sched01/tmp6mkrr40i/0ze8ciewu.sdf

>  <i_m_source_file_index>  (34) 
19

>  <i_lp_mmshare_version>  (34) 
48012

>  <i_f3d_flags>  (34) 
0

>  <s_epik_input>  (34) 
W0NIM11bQ0BASF0oTzEpW0NIMl1bQ0gyXVtDQEhdKE8yKVtDQF0xKFtDSDNdKVtDQEhdKE9DMz1PKVtDQEBIXTJDMzRbQ0gyXVtDSDJdNA==

>  <s_epik_cmdline>  (34) 
J2VwaWtfcHl0aG9uJywgJy1waHQnLCAnMi4wJywgJy1waCcsICc3LjAnLCAnLXRuJywgJzgnLCAnLW1hJywgJzIwMCcsICctaW1hZScsICc8aW5maWxlLm1hZT4nLCAnLW9tYWUnLCAnPG91dGZpbGUubWFlPic=

>  <r_lp_tautomer_probability>  (34) 
1

>  <r_epik_Ionization_Penalty>  (34) 
4.49929e-13

>  <r_epik_Ionization_Penalty_Charging>  (34) 
0

>  <r_epik_Ionization_Penalty_Neutral>  (34) 
4.49929e-13

>  <r_epik_State_Penalty>  (34) 
-0

>  <r_epik_Charging_Adjusted_Penalty>  (34) 
0

>  <i_epik_Tot_Q>  (34) 
0

>  <i_epik_Tot_abs_Q>  (34) 
0

>  <s_epik_Chemistry_Notes>  (34) 
This compound has an ester and may undergo hydrolysis at high or low pH.

>  <s_lp_Force_Field>  (34) 
OPLS3e

>  <r_lp_Energy>  (34) 
9.43194

>  <b_lp_Chiralities_Consistent>  (34) 
1

>  <s_lp_Variant>  (34) 
12:0-1

>  <s_i_glide_gridfile>  (34) 
pfpi4k_grid

>  <i_i_glide_lignum>  (34) 
19

>  <i_i_glide_rotatable_bonds>  (34) 
0

>  <r_i_docking_score>  (34) 
-3.56379

>  <r_i_glide_ligand_efficiency>  (34) 
-0.209634

>  <r_i_glide_ligand_efficiency_sa>  (34) 
-0.539029

>  <r_i_glide_ligand_efficiency_ln>  (34) 
-0.929712

>  <r_i_glide_gscore>  (34) 
-3.56379

>  <r_i_glide_lipo>  (34) 
-0.132976

>  <r_i_glide_hbond>  (34) 
-0.16

>  <r_i_glide_metal>  (34) 
-0

>  <r_i_glide_rewards>  (34) 
-1.84215

>  <r_i_glide_evdw>  (34) 
-20.2549

>  <r_i_glide_ecoul>  (34) 
-2.77273

>  <r_i_glide_erotb>  (34) 
0

>  <r_i_glide_esite>  (34) 
0

>  <r_i_glide_emodel>  (34) 
-28.2434

>  <r_i_glide_energy>  (34) 
-23.0276

>  <r_i_glide_einternal>  (34) 
0

>  <r_i_glide_intrahb_reward>  (34) 
-0

>  <i_i_glide_confnum>  (34) 
1

>  <i_i_glide_posenum>  (34) 
1

>  <r_i_glide_eff_state_penalty>  (34) 
0

>  <ligand_id>  (34) 
12

>  <original_smiles>  (34) 
CC1CCC2OC3C(OC(=O)C34CC4)C2(C)O1

>  <smiles>  (34) 
[H]C([H])([H])C1([H])OC2(C([H])([H])[H])C([H])(OC3([H])C2([H])OC(=O)C32C([H])([H])C2([H])[H])C([H])([H])C1([H])[H]

$$$$
12:0:1
     RDKit          3D

 35 38  0  0  1  0  0  0  0  0999 V2000
    1.6039   -2.8275    3.6117 C   0  0  0  0  0  0  0  0  0  0  0  0
    1.8884   -1.3348    3.3942 C   0  0  2  0  0  0  0  0  0  0  0  0
    2.7418   -0.7571    4.5391 C   0  0  0  0  0  0  0  0  0  0  0  0
    2.8748    0.7596    4.4196 C   0  0  0  0  0  0  0  0  0  0  0  0
    1.5037    1.4227    4.2305 C   0  0  2  0  0  0  0  0  0  0  0  0
    0.6901    1.3918    5.4032 O   0  0  0  0  0  0  0  0  0  0  0  0
   -0.6933    1.3624    5.0398 C   0  0  2  0  0  0  0  0  0  0  0  0
   -0.7424    1.2241    3.5093 C   0  0  1  0  0  0  0  0  0  0  0  0
   -1.0755    2.5284    3.0539 O   0  0  0  0  0  0  0  0  0  0  0  0
   -1.4582    3.3712    4.0221 C   0  0  0  0  0  0  0  0  0  0  0  0
   -1.8069    4.5407    3.8696 O   0  0  0  0  0  0  0  0  0  0  0  0
   -1.3895    2.6606    5.3445 C   0  0  0  0  0  0  0  0  0  0  0  0
   -2.5518    2.7502    6.3080 C   0  0  0  0  0  0  0  0  0  0  0  0
   -1.2553    3.4385    6.6386 C   0  0  0  0  0  0  0  0  0  0  0  0
    0.6580    0.7435    3.1498 C   0  0  1  0  0  0  0  0  0  0  0  0
    1.0672    1.0760    1.7010 C   0  0  0  0  0  0  0  0  0  0  0  0
    0.6262   -0.6753    3.3381 O   0  0  0  0  0  0  0  0  0  0  0  0
    2.5282   -3.4026    3.6744 H   0  0  0  0  0  0  0  0  0  0  0  0
    1.0137   -3.2275    2.7943 H   0  0  0  0  0  0  0  0  0  0  0  0
    1.0423   -2.9913    4.5332 H   0  0  0  0  0  0  0  0  0  0  0  0
    2.4122   -1.2073    2.4485 H   0  0  0  0  0  0  0  0  0  0  0  0
    2.2846   -0.9974    5.4988 H   0  0  0  0  0  0  0  0  0  0  0  0
    3.7302   -1.2214    4.5340 H   0  0  0  0  0  0  0  0  0  0  0  0
    3.3762    1.1649    5.2982 H   0  0  0  0  0  0  0  0  0  0  0  0
    3.5121    1.0023    3.5647 H   0  0  0  0  0  0  0  0  0  0  0  0
    1.6534    2.4730    3.9780 H   0  0  0  0  0  0  0  0  0  0  0  0
   -1.1933    0.5362    5.5423 H   0  0  0  0  0  0  0  0  0  0  0  0
   -1.5198    0.5373    3.1616 H   0  0  0  0  0  0  0  0  0  0  0  0
   -3.4043    3.3647    6.0230 H   0  0  0  0  0  0  0  0  0  0  0  0
   -2.7967    1.8741    6.9106 H   0  0  0  0  0  0  0  0  0  0  0  0
   -0.6640    3.0007    7.4411 H   0  0  0  0  0  0  0  0  0  0  0  0
   -1.2463    4.5281    6.5939 H   0  0  0  0  0  0  0  0  0  0  0  0
    1.0107    2.1431    1.4991 H   0  0  0  0  0  0  0  0  0  0  0  0
    0.4115    0.5760    0.9915 H   0  0  0  0  0  0  0  0  0  0  0  0
    2.0862    0.7685    1.4711 H   0  0  0  0  0  0  0  0  0  0  0  0
  1  2  1  0
  1 18  1  0
  1 19  1  0
  1 20  1  0
  2 17  1  0
  2  3  1  0
  2 21  1  6
  3  4  1  0
  3 22  1  0
  3 23  1  0
  4  5  1  0
  4 24  1  0
  4 25  1  0
  5 15  1  0
  5  6  1  0
  5 26  1  6
  6  7  1  0
  7 12  1  0
  7  8  1  0
  7 27  1  1
  8  9  1  0
  8 15  1  0
  8 28  1  1
  9 10  1  0
 10 11  2  0
 10 12  1  0
 12 14  1  0
 12 13  1  0
 13 14  1  0
 13 29  1  0
 13 30  1  0
 14 31  1  0
 14 32  1  0
 15 16  1  6
 15 17  1  0
 16 33  1  0
 16 34  1  0
 16 35  1  0
M  END
>  <i_m_ct_stereo_status>  (35) 
1

>  <s_m_source_file>  (35) 
/var/tmp/pbs.5076255.sched01/tmp6mkrr40i/0ze8ciewu.sdf

>  <i_m_source_file_index>  (35) 
19

>  <i_lp_mmshare_version>  (35) 
48012

>  <i_f3d_flags>  (35) 
0

>  <s_epik_input>  (35) 
W0NIM11bQ0BASF0oTzEpW0NIMl1bQ0gyXVtDQEhdKE8yKVtDQF0xKFtDSDNdKVtDQEhdKE9DMz1PKVtDQEBIXTJDMzRbQ0gyXVtDSDJdNA==

>  <s_epik_cmdline>  (35) 
J2VwaWtfcHl0aG9uJywgJy1waHQnLCAnMi4wJywgJy1waCcsICc3LjAnLCAnLXRuJywgJzgnLCAnLW1hJywgJzIwMCcsICctaW1hZScsICc8aW5maWxlLm1hZT4nLCAnLW9tYWUnLCAnPG91dGZpbGUubWFlPic=

>  <r_lp_tautomer_probability>  (35) 
1

>  <r_epik_Ionization_Penalty>  (35) 
4.49929e-13

>  <r_epik_Ionization_Penalty_Charging>  (35) 
0

>  <r_epik_Ionization_Penalty_Neutral>  (35) 
4.49929e-13

>  <r_epik_State_Penalty>  (35) 
-0

>  <r_epik_Charging_Adjusted_Penalty>  (35) 
0

>  <i_epik_Tot_Q>  (35) 
0

>  <i_epik_Tot_abs_Q>  (35) 
0

>  <s_epik_Chemistry_Notes>  (35) 
This compound has an ester and may undergo hydrolysis at high or low pH.

>  <s_lp_Force_Field>  (35) 
OPLS3e

>  <r_lp_Energy>  (35) 
9.43194

>  <b_lp_Chiralities_Consistent>  (35) 
1

>  <s_lp_Variant>  (35) 
12:0-1

>  <s_i_glide_gridfile>  (35) 
pfpi4k_grid

>  <i_i_glide_lignum>  (35) 
19

>  <i_i_glide_rotatable_bonds>  (35) 
0

>  <r_i_docking_score>  (35) 
-3.41191

>  <r_i_glide_ligand_efficiency>  (35) 
-0.200701

>  <r_i_glide_ligand_efficiency_sa>  (35) 
-0.516058

>  <r_i_glide_ligand_efficiency_ln>  (35) 
-0.890092

>  <r_i_glide_gscore>  (35) 
-3.41191

>  <r_i_glide_lipo>  (35) 
-0.217828

>  <r_i_glide_hbond>  (35) 
-0.153644

>  <r_i_glide_metal>  (35) 
-0

>  <r_i_glide_rewards>  (35) 
-1.78446

>  <r_i_glide_evdw>  (35) 
-17.4811

>  <r_i_glide_ecoul>  (35) 
-2.20878

>  <r_i_glide_erotb>  (35) 
0

>  <r_i_glide_esite>  (35) 
-0.0506123

>  <r_i_glide_emodel>  (35) 
-24.7105

>  <r_i_glide_energy>  (35) 
-19.6899

>  <r_i_glide_einternal>  (35) 
0

>  <r_i_glide_intrahb_reward>  (35) 
-0

>  <i_i_glide_confnum>  (35) 
2

>  <i_i_glide_posenum>  (35) 
10

>  <r_i_glide_eff_state_penalty>  (35) 
0

>  <ligand_id>  (35) 
12

>  <original_smiles>  (35) 
CC1CCC2OC3C(OC(=O)C34CC4)C2(C)O1

>  <smiles>  (35) 
[H]C([H])([H])C1([H])OC2(C([H])([H])[H])C([H])(OC3([H])C2([H])OC(=O)C32C([H])([H])C2([H])[H])C([H])([H])C1([H])[H]

$$$$
12:0:2
     RDKit          3D

 35 38  0  0  1  0  0  0  0  0999 V2000
    3.6995   -0.7261   -3.2167 C   0  0  0  0  0  0  0  0  0  0  0  0
    4.3081   -1.5833   -2.0994 C   0  0  2  0  0  0  0  0  0  0  0  0
    3.5590   -2.9185   -1.9441 C   0  0  0  0  0  0  0  0  0  0  0  0
    4.0420   -3.6916   -0.7188 C   0  0  0  0  0  0  0  0  0  0  0  0
    4.0519   -2.8075    0.5368 C   0  0  2  0  0  0  0  0  0  0  0  0
    2.7425   -2.5039    1.0254 O   0  0  0  0  0  0  0  0  0  0  0  0
    2.7437   -1.2240    1.6675 C   0  0  2  0  0  0  0  0  0  0  0  0
    4.1380   -0.6276    1.4497 C   0  0  1  0  0  0  0  0  0  0  0  0
    4.7869   -0.8058    2.7044 O   0  0  0  0  0  0  0  0  0  0  0  0
    3.9688   -1.1828    3.7009 C   0  0  0  0  0  0  0  0  0  0  0  0
    4.2962   -1.3696    4.8731 O   0  0  0  0  0  0  0  0  0  0  0  0
    2.5800   -1.3394    3.1550 C   0  0  0  0  0  0  0  0  0  0  0  0
    1.4091   -0.7199    3.8900 C   0  0  0  0  0  0  0  0  0  0  0  0
    1.5611   -2.2196    3.8517 C   0  0  0  0  0  0  0  0  0  0  0  0
    4.7116   -1.4429    0.3015 C   0  0  1  0  0  0  0  0  0  0  0  0
    6.2508   -1.4572    0.2697 C   0  0  0  0  0  0  0  0  0  0  0  0
    4.2287   -0.8243   -0.8933 O   0  0  0  0  0  0  0  0  0  0  0  0
    3.7243   -1.2390   -4.1790 H   0  0  0  0  0  0  0  0  0  0  0  0
    4.2283    0.2228   -3.3202 H   0  0  0  0  0  0  0  0  0  0  0  0
    2.6575   -0.4867   -2.9941 H   0  0  0  0  0  0  0  0  0  0  0  0
    5.3528   -1.7830   -2.3400 H   0  0  0  0  0  0  0  0  0  0  0  0
    2.4874   -2.7323   -1.8444 H   0  0  0  0  0  0  0  0  0  0  0  0
    3.6862   -3.5277   -2.8416 H   0  0  0  0  0  0  0  0  0  0  0  0
    3.4273   -4.5774   -0.5634 H   0  0  0  0  0  0  0  0  0  0  0  0
    5.0542   -4.0521   -0.9057 H   0  0  0  0  0  0  0  0  0  0  0  0
    4.5736   -3.3343    1.3355 H   0  0  0  0  0  0  0  0  0  0  0  0
    1.9547   -0.5968    1.2580 H   0  0  0  0  0  0  0  0  0  0  0  0
    4.1137    0.4411    1.2281 H   0  0  0  0  0  0  0  0  0  0  0  0
    1.6082   -0.2127    4.8329 H   0  0  0  0  0  0  0  0  0  0  0  0
    0.5933   -0.3050    3.2980 H   0  0  0  0  0  0  0  0  0  0  0  0
    0.8518   -2.7638    3.2305 H   0  0  0  0  0  0  0  0  0  0  0  0
    1.8526   -2.7168    4.7793 H   0  0  0  0  0  0  0  0  0  0  0  0
    6.6722   -1.8356    1.1978 H   0  0  0  0  0  0  0  0  0  0  0  0
    6.6370   -0.4498    0.1176 H   0  0  0  0  0  0  0  0  0  0  0  0
    6.6396   -2.0875   -0.5276 H   0  0  0  0  0  0  0  0  0  0  0  0
  1  2  1  0
  1 18  1  0
  1 19  1  0
  1 20  1  0
  2 17  1  0
  2  3  1  0
  2 21  1  6
  3  4  1  0
  3 22  1  0
  3 23  1  0
  4  5  1  0
  4 24  1  0
  4 25  1  0
  5 15  1  0
  5  6  1  0
  5 26  1  1
  6  7  1  0
  7 12  1  0
  7  8  1  0
  7 27  1  6
  8  9  1  0
  8 15  1  0
  8 28  1  6
  9 10  1  0
 10 11  2  0
 10 12  1  0
 12 14  1  0
 12 13  1  0
 13 14  1  0
 13 29  1  0
 13 30  1  0
 14 31  1  0
 14 32  1  0
 15 16  1  6
 15 17  1  0
 16 33  1  0
 16 34  1  0
 16 35  1  0
M  END
>  <i_m_ct_stereo_status>  (36) 
1

>  <s_m_source_file>  (36) 
/var/tmp/pbs.5076255.sched01/tmp6mkrr40i/0ze8ciewu.sdf

>  <i_m_source_file_index>  (36) 
19

>  <i_lp_mmshare_version>  (36) 
48012

>  <i_f3d_flags>  (36) 
0

>  <s_epik_input>  (36) 
W0NIM11bQ0BASF0oTzEpW0NIMl1bQ0gyXVtDQEhdKE8yKVtDQF0xKFtDSDNdKVtDQEhdKE9DMz1PKVtDQEBIXTJDMzRbQ0gyXVtDSDJdNA==

>  <s_epik_cmdline>  (36) 
J2VwaWtfcHl0aG9uJywgJy1waHQnLCAnMi4wJywgJy1waCcsICc3LjAnLCAnLXRuJywgJzgnLCAnLW1hJywgJzIwMCcsICctaW1hZScsICc8aW5maWxlLm1hZT4nLCAnLW9tYWUnLCAnPG91dGZpbGUubWFlPic=

>  <r_lp_tautomer_probability>  (36) 
1

>  <r_epik_Ionization_Penalty>  (36) 
4.49929e-13

>  <r_epik_Ionization_Penalty_Charging>  (36) 
0

>  <r_epik_Ionization_Penalty_Neutral>  (36) 
4.49929e-13

>  <r_epik_State_Penalty>  (36) 
-0

>  <r_epik_Charging_Adjusted_Penalty>  (36) 
0

>  <i_epik_Tot_Q>  (36) 
0

>  <i_epik_Tot_abs_Q>  (36) 
0

>  <s_epik_Chemistry_Notes>  (36) 
This compound has an ester and may undergo hydrolysis at high or low pH.

>  <s_lp_Force_Field>  (36) 
OPLS3e

>  <r_lp_Energy>  (36) 
9.43194

>  <b_lp_Chiralities_Consistent>  (36) 
1

>  <s_lp_Variant>  (36) 
12:0-1

>  <s_i_glide_gridfile>  (36) 
pfpi4k_grid

>  <i_i_glide_lignum>  (36) 
19

>  <i_i_glide_rotatable_bonds>  (36) 
0

>  <r_i_docking_score>  (36) 
-3.16594

>  <r_i_glide_ligand_efficiency>  (36) 
-0.186232

>  <r_i_glide_ligand_efficiency_sa>  (36) 
-0.478855

>  <r_i_glide_ligand_efficiency_ln>  (36) 
-0.825924

>  <r_i_glide_gscore>  (36) 
-3.16594

>  <r_i_glide_lipo>  (36) 
-0.260602

>  <r_i_glide_hbond>  (36) 
0

>  <r_i_glide_metal>  (36) 
-0

>  <r_i_glide_rewards>  (36) 
-1.78899

>  <r_i_glide_evdw>  (36) 
-22.0993

>  <r_i_glide_ecoul>  (36) 
-0.0759239

>  <r_i_glide_erotb>  (36) 
0

>  <r_i_glide_esite>  (36) 
0

>  <r_i_glide_emodel>  (36) 
-26.8288

>  <r_i_glide_energy>  (36) 
-22.1752

>  <r_i_glide_einternal>  (36) 
0

>  <r_i_glide_intrahb_reward>  (36) 
-0

>  <i_i_glide_confnum>  (36) 
1

>  <i_i_glide_posenum>  (36) 
2

>  <r_i_glide_eff_state_penalty>  (36) 
0

>  <ligand_id>  (36) 
12

>  <original_smiles>  (36) 
CC1CCC2OC3C(OC(=O)C34CC4)C2(C)O1

>  <smiles>  (36) 
[H]C([H])([H])C1([H])OC2(C([H])([H])[H])C([H])(OC3([H])C2([H])OC(=O)C32C([H])([H])C2([H])[H])C([H])([H])C1([H])[H]

$$$$
13:0:0
     RDKit          3D

 74 80  0  0  1  0  0  0  0  0999 V2000
    4.9654   -3.5005   -2.4423 C   0  0  0  0  0  0  0  0  0  0  0  0
    4.4481   -3.3372   -1.0229 C   0  0  0  0  0  0  0  0  0  0  0  0
    3.5964   -4.0859   -0.3205 C   0  0  0  0  0  0  0  0  0  0  0  0
    3.4663   -3.5712    1.0971 C   0  0  1  0  0  0  0  0  0  0  0  0
    3.7618   -4.5976    2.2897 C   0  0  1  0  0  0  0  0  0  0  0  0
    3.4540   -3.6699    3.2973 O   0  0  0  0  0  0  0  0  0  0  0  0
    2.5704   -5.7351    2.3697 C   0  0  0  0  0  0  0  0  0  0  0  0
    1.6629   -5.4828    1.5400 O   0  0  0  0  0  0  0  0  0  0  0  0
    2.4895   -7.2910    3.0641 C   0  0  1  0  0  0  0  0  0  0  0  0
    1.4723   -6.3539    3.8554 C   0  0  0  0  0  0  0  0  0  0  0  0
    1.6272   -6.2366    5.1550 C   0  0  0  0  0  0  0  0  0  0  0  0
    2.6867   -7.1580    5.5644 C   0  0  2  0  0  0  0  0  0  0  0  0
    4.2172   -6.4623    5.1407 C   0  0  0  0  0  0  0  0  0  0  0  0
    4.2504   -4.9759    5.6014 C   0  0  0  0  0  0  0  0  0  0  0  0
    5.2745   -7.0181    6.1822 C   0  0  0  0  0  0  0  0  0  0  0  0
    4.7914   -6.9121    3.5687 C   0  0  2  0  0  0  0  0  0  0  0  0
    5.9648   -6.3441    2.8845 C   0  0  1  0  0  0  0  0  0  0  0  0
    7.1530   -5.9999    3.8122 C   0  0  0  0  0  0  0  0  0  0  0  0
    6.5391   -7.5555    1.9143 C   0  0  0  0  0  0  0  0  0  0  0  0
    6.0182   -9.0947    1.7965 C   0  0  0  0  0  0  0  0  0  0  0  0
    6.5754   -9.8185    0.9698 O   0  0  0  0  0  0  0  0  0  0  0  0
    4.9277   -9.6061    2.6208 O   0  0  0  0  0  0  0  0  0  0  0  0
    3.4369   -9.7581    2.3308 C   0  0  2  0  0  0  0  0  0  0  0  0
    3.3082   -8.5961    1.4953 C   0  0  0  0  0  0  0  0  0  0  0  0
    3.7557   -7.2774    2.2789 C   0  0  1  0  0  0  0  0  0  0  0  0
    4.1085   -6.9165    0.8661 O   0  0  0  0  0  0  0  0  0  0  0  0
    2.1842   -9.7382    3.5764 C   0  0  1  0  0  0  0  0  0  0  0  0
    2.4922  -11.0120    4.2981 C   0  0  1  0  0  0  0  0  0  0  0  0
    2.9995  -12.1131    3.5659 O   0  0  0  0  0  0  0  0  0  0  0  0
    3.5359  -10.1179    4.8343 C   0  0  0  0  0  0  0  0  0  0  0  0
    3.1452   -8.5419    4.4127 C   0  0  2  0  0  0  0  0  0  0  0  0
    1.9625   -8.5965    4.9300 C   0  0  2  0  0  0  0  0  0  0  0  0
    1.3066   -9.2249    6.2200 C   0  0  0  0  0  0  0  0  0  0  0  0
    5.3789   -4.9770    2.3030 C   0  0  1  0  0  0  0  0  0  0  0  0
    6.0647   -4.8523    1.0730 O   0  0  0  0  0  0  0  0  0  0  0  0
    4.3553   -2.4493    1.0621 O   0  0  0  0  0  0  0  0  0  0  0  0
    4.9330   -2.2689   -0.1524 C   0  0  0  0  0  0  0  0  0  0  0  0
    5.7406   -1.3898   -0.4479 O   0  0  0  0  0  0  0  0  0  0  0  0
    6.0536   -3.5533   -2.4360 H   0  0  0  0  0  0  0  0  0  0  0  0
    4.6699   -2.6554   -3.0645 H   0  0  0  0  0  0  0  0  0  0  0  0
    4.6083   -4.4199   -2.9023 H   0  0  0  0  0  0  0  0  0  0  0  0
    3.0738   -4.9524   -0.6968 H   0  0  0  0  0  0  0  0  0  0  0  0
    2.4497   -3.1811    1.1760 H   0  0  0  0  0  0  0  0  0  0  0  0
    2.6362   -3.2479    3.0783 H   0  0  0  0  0  0  0  0  0  0  0  0
    0.5371   -5.9630    3.4534 H   0  0  0  0  0  0  0  0  0  0  0  0
    0.9846   -5.7252    5.8557 H   0  0  0  0  0  0  0  0  0  0  0  0
    2.6413   -7.1825    6.6577 H   0  0  0  0  0  0  0  0  0  0  0  0
    5.0245   -4.3958    5.1095 H   0  0  0  0  0  0  0  0  0  0  0  0
    4.4541   -4.8859    6.6700 H   0  0  0  0  0  0  0  0  0  0  0  0
    3.3063   -4.4501    5.5109 H   0  0  0  0  0  0  0  0  0  0  0  0
    6.1507   -6.3772    6.2695 H   0  0  0  0  0  0  0  0  0  0  0  0
    5.6855   -8.0086    5.9840 H   0  0  0  0  0  0  0  0  0  0  0  0
    4.8445   -7.0756    7.1840 H   0  0  0  0  0  0  0  0  0  0  0  0
    5.3712   -7.7658    3.8753 H   0  0  0  0  0  0  0  0  0  0  0  0
    7.9845   -5.6198    3.2191 H   0  0  0  0  0  0  0  0  0  0  0  0
    7.5140   -6.8754    4.3556 H   0  0  0  0  0  0  0  0  0  0  0  0
    6.9220   -5.2210    4.5391 H   0  0  0  0  0  0  0  0  0  0  0  0
    6.5398   -7.1990    0.8857 H   0  0  0  0  0  0  0  0  0  0  0  0
    7.6024   -7.6491    2.1253 H   0  0  0  0  0  0  0  0  0  0  0  0
    3.2928  -10.6327    1.7020 H   0  0  0  0  0  0  0  0  0  0  0  0
    3.8086   -8.9520    0.5751 H   0  0  0  0  0  0  0  0  0  0  0  0
    2.2715   -8.5306    1.1444 H   0  0  0  0  0  0  0  0  0  0  0  0
    4.0514   -5.9829    0.7499 H   0  0  0  0  0  0  0  0  0  0  0  0
    1.2185   -9.8689    3.0836 H   0  0  0  0  0  0  0  0  0  0  0  0
    1.7624  -11.3618    5.0322 H   0  0  0  0  0  0  0  0  0  0  0  0
    2.3220  -12.7742    3.4668 H   0  0  0  0  0  0  0  0  0  0  0  0
    3.6043  -10.2767    5.9118 H   0  0  0  0  0  0  0  0  0  0  0  0
    4.5270  -10.5024    4.5959 H   0  0  0  0  0  0  0  0  0  0  0  0
    4.0704   -8.6291    4.9722 H   0  0  0  0  0  0  0  0  0  0  0  0
    0.5550   -9.9756    5.9764 H   0  0  0  0  0  0  0  0  0  0  0  0
    0.7372   -8.4586    6.7441 H   0  0  0  0  0  0  0  0  0  0  0  0
    1.9927   -9.6322    6.9612 H   0  0  0  0  0  0  0  0  0  0  0  0
    5.8122   -4.1641    2.8805 H   0  0  0  0  0  0  0  0  0  0  0  0
    5.7323   -5.4879    0.4539 H   0  0  0  0  0  0  0  0  0  0  0  0
  1  2  1  0
  1 39  1  0
  1 40  1  0
  1 41  1  0
  2 37  1  0
  2  3  2  0
  3  4  1  0
  3 42  1  0
  4  5  1  0
  4 36  1  0
  4 43  1  1
  5 34  1  0
  5  6  1  1
  5  7  1  0
  6 44  1  0
  7  8  2  0
  9  7  1  1
  9 25  1  0
  9 31  1  0
  9 10  1  0
 10 11  2  0
 10 45  1  0
 11 12  1  0
 11 46  1  0
 12 32  1  0
 12 13  1  0
 12 47  1  1
 13 14  1  0
 13 15  1  0
 13 16  1  0
 14 48  1  0
 14 49  1  0
 14 50  1  0
 15 51  1  0
 15 52  1  0
 15 53  1  0
 16 25  1  0
 16 17  1  0
 16 54  1  1
 17 18  1  1
 17 19  1  0
 17 34  1  0
 18 55  1  0
 18 56  1  0
 18 57  1  0
 19 20  1  0
 19 58  1  0
 19 59  1  0
 20 21  2  0
 20 22  1  0
 22 23  1  0
 23 24  1  0
 23 27  1  0
 23 60  1  6
 24 25  1  0
 24 61  1  0
 24 62  1  0
 25 26  1  6
 26 63  1  0
 27 32  1  0
 27 28  1  0
 27 64  1  6
 28 29  1  0
 28 30  1  0
 28 65  1  1
 29 66  1  0
 30 31  1  0
 30 67  1  0
 30 68  1  0
 31 32  1  0
 31 69  1  1
 32 33  1  1
 33 70  1  0
 33 71  1  0
 33 72  1  0
 34 35  1  0
 34 73  1  1
 35 74  1  0
 36 37  1  0
 37 38  2  0
M  END
>  <i_m_ct_stereo_status>  (37) 
1

>  <s_m_source_file>  (37) 
/var/tmp/pbs.5076255.sched01/tmp6mkrr40i/0ze8ciewu.sdf

>  <i_m_source_file_index>  (37) 
20

>  <i_lp_mmshare_version>  (37) 
48012

>  <i_f3d_flags>  (37) 
2

>  <s_epik_input>  (37) 
W0NIM11DMT1bQ0hdW0NASF0oT0MxPU8pW0NAQF0oW09IXSkoQzI9TylbQ0BIXShbT0hdKVtDQF0oW0NIM10pKFtDSF0zW0NAQF00KFtDQF0yNTYpW09IXSlbQ0gyXUMoPU8pT1tDQEhdKFtDSDJdNClbQ0BIXTdbQ0BAXShbQ0gzXSkoW0NASF0oW0NIXT1bQ0hdNSlDMyhbQ0gzXSlbQ0gzXSlbQ0BASF02W0NIMl1bQ0BASF03W09IXQ==

>  <s_epik_cmdline>  (37) 
J2VwaWtfcHl0aG9uJywgJy1waHQnLCAnMi4wJywgJy1waCcsICc3LjAnLCAnLXRuJywgJzgnLCAnLW1hJywgJzIwMCcsICctaW1hZScsICc8aW5maWxlLm1hZT4nLCAnLW9tYWUnLCAnPG91dGZpbGUubWFlPic=

>  <r_lp_tautomer_probability>  (37) 
1

>  <r_epik_Ionization_Penalty>  (37) 
1.98174e-06

>  <r_epik_Ionization_Penalty_Charging>  (37) 
0

>  <r_epik_Ionization_Penalty_Neutral>  (37) 
1.98174e-06

>  <r_epik_State_Penalty>  (37) 
-0

>  <r_epik_Charging_Adjusted_Penalty>  (37) 
0

>  <i_epik_Tot_Q>  (37) 
0

>  <i_epik_Tot_abs_Q>  (37) 
0

>  <s_epik_Chemistry_Notes>  (37) 
This compound has an ester and may undergo hydrolysis at high or low pH.

>  <s_lp_Force_Field>  (37) 
OPLS3e

>  <r_lp_Energy>  (37) 
898.413

>  <b_lp_Chiralities_Consistent>  (37) 
0

>  <s_lp_Variant>  (37) 
13:0-1

>  <s_i_glide_gridfile>  (37) 
pfpi4k_grid

>  <i_i_glide_lignum>  (37) 
20

>  <i_i_glide_rotatable_bonds>  (37) 
5

>  <r_i_docking_score>  (37) 
-3.14889

>  <r_i_glide_ligand_efficiency>  (37) 
-0.0828654

>  <r_i_glide_ligand_efficiency_sa>  (37) 
-0.278592

>  <r_i_glide_ligand_efficiency_ln>  (37) 
-0.678992

>  <r_i_glide_gscore>  (37) 
-3.14889

>  <r_i_glide_lipo>  (37) 
-0.225594

>  <r_i_glide_hbond>  (37) 
-0.0854955

>  <r_i_glide_metal>  (37) 
-0

>  <r_i_glide_rewards>  (37) 
-0.0687624

>  <r_i_glide_evdw>  (37) 
-33.4377

>  <r_i_glide_ecoul>  (37) 
-7.71407

>  <r_i_glide_erotb>  (37) 
0.0737358

>  <r_i_glide_esite>  (37) 
-0.013776

>  <r_i_glide_emodel>  (37) 
-45.8591

>  <r_i_glide_energy>  (37) 
-41.1517

>  <r_i_glide_einternal>  (37) 
6.75782

>  <r_i_glide_intrahb_reward>  (37) 
-0

>  <i_i_glide_confnum>  (37) 
4

>  <i_i_glide_posenum>  (37) 
11

>  <r_i_glide_eff_state_penalty>  (37) 
0

>  <ligand_id>  (37) 
13

>  <original_smiles>  (37) 
CC1=CC(C2(O)C(=O)C34C=CC5C(C)(C)C6C(C)(CC(=O)OC(CC63O)C3C(O)CC4C35C)C2O)OC1=O

>  <smiles>  (37) 
[H]OC1([H])C([H])([H])C2([H])C34C(=O)C(O[H])(C5([H])OC(=O)C(C([H])([H])[H])=C5[H])C([H])(O[H])C5(C([H])([H])[H])C([H])([H])C(=O)OC6([H])C([H])([H])C3(O[H])C5([H])C(C([H])([H])[H])(C([H])([H])[H])C([H])(C([H])=C4[H])C2(C([H])([H])[H])C16[H]

$$$$
13:0:1
     RDKit          3D

 74 80  0  0  1  0  0  0  0  0999 V2000
    5.2021   -3.4478   -2.5851 C   0  0  0  0  0  0  0  0  0  0  0  0
    4.7349   -3.2148   -1.1621 C   0  0  0  0  0  0  0  0  0  0  0  0
    3.8129   -3.8537   -0.4407 C   0  0  0  0  0  0  0  0  0  0  0  0
    3.7475   -3.3031    0.9678 C   0  0  1  0  0  0  0  0  0  0  0  0
    3.9336   -4.3392    2.1720 C   0  0  1  0  0  0  0  0  0  0  0  0
    3.6333   -3.3917    3.1597 O   0  0  0  0  0  0  0  0  0  0  0  0
    2.6769   -5.4057    2.1983 C   0  0  0  0  0  0  0  0  0  0  0  0
    1.8195   -5.1240    1.3270 O   0  0  0  0  0  0  0  0  0  0  0  0
    2.4839   -6.9457    2.8962 C   0  0  1  0  0  0  0  0  0  0  0  0
    1.4880   -5.9456    3.6418 C   0  0  0  0  0  0  0  0  0  0  0  0
    1.5915   -5.8327    4.9464 C   0  0  0  0  0  0  0  0  0  0  0  0
    2.5763   -6.8136    5.4015 C   0  0  2  0  0  0  0  0  0  0  0  0
    4.1627   -6.2096    5.0403 C   0  0  0  0  0  0  0  0  0  0  0  0
    4.2630   -4.7267    5.4971 C   0  0  0  0  0  0  0  0  0  0  0  0
    5.1381   -6.8235    6.1283 C   0  0  0  0  0  0  0  0  0  0  0  0
    4.7809   -6.7027    3.4963 C   0  0  2  0  0  0  0  0  0  0  0  0
    6.0102   -6.2031    2.8626 C   0  0  1  0  0  0  0  0  0  0  0  0
    7.1745   -5.9292    3.8419 C   0  0  0  0  0  0  0  0  0  0  0  0
    6.5547   -7.4422    1.9153 C   0  0  0  0  0  0  0  0  0  0  0  0
    5.9673   -8.9563    1.7873 C   0  0  0  0  0  0  0  0  0  0  0  0
    6.5610   -9.7166    1.0246 O   0  0  0  0  0  0  0  0  0  0  0  0
    4.8036   -9.4178    2.5492 O   0  0  0  0  0  0  0  0  0  0  0  0
    3.3152   -9.4597    2.2014 C   0  0  2  0  0  0  0  0  0  0  0  0
    3.2966   -8.2965    1.3664 C   0  0  0  0  0  0  0  0  0  0  0  0
    3.7819   -7.0058    2.1636 C   0  0  1  0  0  0  0  0  0  0  0  0
    4.2149   -6.6719    0.7643 O   0  0  0  0  0  0  0  0  0  0  0  0
    2.0077   -9.3626    3.3924 C   0  0  1  0  0  0  0  0  0  0  0  0
    2.2016  -10.6526    4.1242 C   0  0  1  0  0  0  0  0  0  0  0  0
    2.6439  -11.7910    3.4037 O   0  0  0  0  0  0  0  0  0  0  0  0
    3.2793   -9.8236    4.7055 C   0  0  0  0  0  0  0  0  0  0  0  0
    3.0033   -8.2294    4.2713 C   0  0  2  0  0  0  0  0  0  0  0  0
    1.7989   -8.2090    4.7358 C   0  0  2  0  0  0  0  0  0  0  0  0
    1.0487   -8.7911    5.9958 C   0  0  0  0  0  0  0  0  0  0  0  0
    5.5267   -4.8087    2.2540 C   0  0  1  0  0  0  0  0  0  0  0  0
    6.2656   -4.7345    1.0517 O   0  0  0  0  0  0  0  0  0  0  0  0
    4.7541   -2.2861    0.9132 O   0  0  0  0  0  0  0  0  0  0  0  0
    5.3426   -2.2036   -0.3085 C   0  0  0  0  0  0  0  0  0  0  0  0
    6.2569   -1.4492   -0.6219 O   0  0  0  0  0  0  0  0  0  0  0  0
    6.2759   -3.6389   -2.5987 H   0  0  0  0  0  0  0  0  0  0  0  0
    5.0132   -2.5776   -3.2125 H   0  0  0  0  0  0  0  0  0  0  0  0
    4.7089   -4.3124   -3.0284 H   0  0  0  0  0  0  0  0  0  0  0  0
    3.1913   -4.6553   -0.8048 H   0  0  0  0  0  0  0  0  0  0  0  0
    2.7799   -2.8035    1.0459 H   0  0  0  0  0  0  0  0  0  0  0  0
    4.2828   -2.7047    3.1141 H   0  0  0  0  0  0  0  0  0  0  0  0
    0.6003   -5.4920    3.1992 H   0  0  0  0  0  0  0  0  0  0  0  0
    0.9538   -5.2751    5.6162 H   0  0  0  0  0  0  0  0  0  0  0  0
    2.4820   -6.8301    6.4909 H   0  0  0  0  0  0  0  0  0  0  0  0
    5.0933   -4.1945    5.0409 H   0  0  0  0  0  0  0  0  0  0  0  0
    4.4229   -4.6456    6.5751 H   0  0  0  0  0  0  0  0  0  0  0  0
    3.3563   -4.1436    5.3631 H   0  0  0  0  0  0  0  0  0  0  0  0
    6.0464   -6.2344    6.2520 H   0  0  0  0  0  0  0  0  0  0  0  0
    5.4982   -7.8366    5.9492 H   0  0  0  0  0  0  0  0  0  0  0  0
    4.6614   -6.8513    7.1098 H   0  0  0  0  0  0  0  0  0  0  0  0
    5.2900   -7.5919    3.8268 H   0  0  0  0  0  0  0  0  0  0  0  0
    8.0513   -5.6003    3.2834 H   0  0  0  0  0  0  0  0  0  0  0  0
    7.4595   -6.8242    4.4009 H   0  0  0  0  0  0  0  0  0  0  0  0
    6.9578   -5.1367    4.5573 H   0  0  0  0  0  0  0  0  0  0  0  0
    6.6197   -7.0960    0.8847 H   0  0  0  0  0  0  0  0  0  0  0  0
    7.5998   -7.6008    2.1751 H   0  0  0  0  0  0  0  0  0  0  0  0
    3.1387  -10.3207    1.5679 H   0  0  0  0  0  0  0  0  0  0  0  0
    3.8162   -8.6925    0.4726 H   0  0  0  0  0  0  0  0  0  0  0  0
    2.2807   -8.1701    0.9703 H   0  0  0  0  0  0  0  0  0  0  0  0
    4.1572   -5.7376    0.6230 H   0  0  0  0  0  0  0  0  0  0  0  0
    1.0580   -9.4340    2.8561 H   0  0  0  0  0  0  0  0  0  0  0  0
    1.4226  -10.9507    4.8300 H   0  0  0  0  0  0  0  0  0  0  0  0
    1.9358  -12.4176    3.3280 H   0  0  0  0  0  0  0  0  0  0  0  0
    3.2901   -9.9809    5.7846 H   0  0  0  0  0  0  0  0  0  0  0  0
    4.2535  -10.2675    4.5060 H   0  0  0  0  0  0  0  0  0  0  0  0
    3.8964   -8.3673    4.8738 H   0  0  0  0  0  0  0  0  0  0  0  0
    0.2638   -9.4946    5.7184 H   0  0  0  0  0  0  0  0  0  0  0  0
    0.5044   -7.9880    6.4927 H   0  0  0  0  0  0  0  0  0  0  0  0
    1.6789   -9.2342    6.7664 H   0  0  0  0  0  0  0  0  0  0  0  0
    5.9917   -4.0247    2.8471 H   0  0  0  0  0  0  0  0  0  0  0  0
    5.9176   -5.3614    0.4274 H   0  0  0  0  0  0  0  0  0  0  0  0
  1  2  1  0
  1 39  1  0
  1 40  1  0
  1 41  1  0
  2 37  1  0
  2  3  2  0
  3  4  1  0
  3 42  1  0
  4  5  1  0
  4 36  1  0
  4 43  1  1
  5 34  1  0
  5  6  1  1
  5  7  1  0
  6 44  1  0
  7  8  2  0
  9  7  1  1
  9 25  1  0
  9 31  1  0
  9 10  1  0
 10 11  2  0
 10 45  1  0
 11 12  1  0
 11 46  1  0
 12 32  1  0
 12 13  1  0
 12 47  1  1
 13 14  1  0
 13 15  1  0
 13 16  1  0
 14 48  1  0
 14 49  1  0
 14 50  1  0
 15 51  1  0
 15 52  1  0
 15 53  1  0
 16 25  1  0
 16 17  1  0
 16 54  1  1
 17 18  1  1
 17 19  1  0
 17 34  1  0
 18 55  1  0
 18 56  1  0
 18 57  1  0
 19 20  1  0
 19 58  1  0
 19 59  1  0
 20 21  2  0
 20 22  1  0
 22 23  1  0
 23 24  1  0
 23 27  1  0
 23 60  1  6
 24 25  1  0
 24 61  1  0
 24 62  1  0
 25 26  1  6
 26 63  1  0
 27 32  1  0
 27 28  1  0
 27 64  1  6
 28 29  1  0
 28 30  1  0
 28 65  1  1
 29 66  1  0
 30 31  1  0
 30 67  1  0
 30 68  1  0
 31 32  1  0
 31 69  1  1
 32 33  1  1
 33 70  1  0
 33 71  1  0
 33 72  1  0
 34 35  1  0
 34 73  1  1
 35 74  1  0
 36 37  1  0
 37 38  2  0
M  END
>  <i_m_ct_stereo_status>  (38) 
1

>  <s_m_source_file>  (38) 
/var/tmp/pbs.5076255.sched01/tmp6mkrr40i/0ze8ciewu.sdf

>  <i_m_source_file_index>  (38) 
20

>  <i_lp_mmshare_version>  (38) 
48012

>  <i_f3d_flags>  (38) 
2

>  <s_epik_input>  (38) 
W0NIM11DMT1bQ0hdW0NASF0oT0MxPU8pW0NAQF0oW09IXSkoQzI9TylbQ0BIXShbT0hdKVtDQF0oW0NIM10pKFtDSF0zW0NAQF00KFtDQF0yNTYpW09IXSlbQ0gyXUMoPU8pT1tDQEhdKFtDSDJdNClbQ0BIXTdbQ0BAXShbQ0gzXSkoW0NASF0oW0NIXT1bQ0hdNSlDMyhbQ0gzXSlbQ0gzXSlbQ0BASF02W0NIMl1bQ0BASF03W09IXQ==

>  <s_epik_cmdline>  (38) 
J2VwaWtfcHl0aG9uJywgJy1waHQnLCAnMi4wJywgJy1waCcsICc3LjAnLCAnLXRuJywgJzgnLCAnLW1hJywgJzIwMCcsICctaW1hZScsICc8aW5maWxlLm1hZT4nLCAnLW9tYWUnLCAnPG91dGZpbGUubWFlPic=

>  <r_lp_tautomer_probability>  (38) 
1

>  <r_epik_Ionization_Penalty>  (38) 
1.98174e-06

>  <r_epik_Ionization_Penalty_Charging>  (38) 
0

>  <r_epik_Ionization_Penalty_Neutral>  (38) 
1.98174e-06

>  <r_epik_State_Penalty>  (38) 
-0

>  <r_epik_Charging_Adjusted_Penalty>  (38) 
0

>  <i_epik_Tot_Q>  (38) 
0

>  <i_epik_Tot_abs_Q>  (38) 
0

>  <s_epik_Chemistry_Notes>  (38) 
This compound has an ester and may undergo hydrolysis at high or low pH.

>  <s_lp_Force_Field>  (38) 
OPLS3e

>  <r_lp_Energy>  (38) 
898.413

>  <b_lp_Chiralities_Consistent>  (38) 
0

>  <s_lp_Variant>  (38) 
13:0-1

>  <s_i_glide_gridfile>  (38) 
pfpi4k_grid

>  <i_i_glide_lignum>  (38) 
20

>  <i_i_glide_rotatable_bonds>  (38) 
5

>  <r_i_docking_score>  (38) 
-3.09955

>  <r_i_glide_ligand_efficiency>  (38) 
-0.0815672

>  <r_i_glide_ligand_efficiency_sa>  (38) 
-0.274227

>  <r_i_glide_ligand_efficiency_ln>  (38) 
-0.668355

>  <r_i_glide_gscore>  (38) 
-3.09955

>  <r_i_glide_lipo>  (38) 
-0.330348

>  <r_i_glide_hbond>  (38) 
-0.184182

>  <r_i_glide_metal>  (38) 
-0

>  <r_i_glide_rewards>  (38) 
-0.0692035

>  <r_i_glide_evdw>  (38) 
-33.7064

>  <r_i_glide_ecoul>  (38) 
-5.90859

>  <r_i_glide_erotb>  (38) 
0.0737358

>  <r_i_glide_esite>  (38) 
-0.0179464

>  <r_i_glide_emodel>  (38) 
-45.1294

>  <r_i_glide_energy>  (38) 
-39.615

>  <r_i_glide_einternal>  (38) 
4.81474

>  <r_i_glide_intrahb_reward>  (38) 
-0

>  <i_i_glide_confnum>  (38) 
4

>  <i_i_glide_posenum>  (38) 
6

>  <r_i_glide_eff_state_penalty>  (38) 
0

>  <ligand_id>  (38) 
13

>  <original_smiles>  (38) 
CC1=CC(C2(O)C(=O)C34C=CC5C(C)(C)C6C(C)(CC(=O)OC(CC63O)C3C(O)CC4C35C)C2O)OC1=O

>  <smiles>  (38) 
[H]OC1([H])C([H])([H])C2([H])C34C(=O)C(O[H])(C5([H])OC(=O)C(C([H])([H])[H])=C5[H])C([H])(O[H])C5(C([H])([H])[H])C([H])([H])C(=O)OC6([H])C([H])([H])C3(O[H])C5([H])C(C([H])([H])[H])(C([H])([H])[H])C([H])(C([H])=C4[H])C2(C([H])([H])[H])C16[H]

$$$$
13:0:2
     RDKit          3D

 74 80  0  0  1  0  0  0  0  0999 V2000
    5.6507   -2.3270   -1.4860 C   0  0  0  0  0  0  0  0  0  0  0  0
    4.5550   -2.5267   -0.4613 C   0  0  0  0  0  0  0  0  0  0  0  0
    3.7813   -3.5927   -0.2397 C   0  0  0  0  0  0  0  0  0  0  0  0
    2.8838   -3.3654    0.9565 C   0  0  1  0  0  0  0  0  0  0  0  0
    2.9347   -4.4432    2.1412 C   0  0  1  0  0  0  0  0  0  0  0  0
    1.8634   -3.8754    2.8418 O   0  0  0  0  0  0  0  0  0  0  0  0
    2.3602   -5.8909    1.6130 C   0  0  0  0  0  0  0  0  0  0  0  0
    1.8935   -5.7776    0.4592 O   0  0  0  0  0  0  0  0  0  0  0  0
    2.5637   -7.4913    2.1810 C   0  0  1  0  0  0  0  0  0  0  0  0
    1.0209   -7.1181    2.3265 C   0  0  0  0  0  0  0  0  0  0  0  0
    0.4855   -7.1913    3.5306 C   0  0  0  0  0  0  0  0  0  0  0  0
    1.4843   -7.7734    4.4232 C   0  0  2  0  0  0  0  0  0  0  0  0
    2.6423   -6.5502    4.8324 C   0  0  0  0  0  0  0  0  0  0  0  0
    1.8918   -5.2495    5.2360 C   0  0  0  0  0  0  0  0  0  0  0  0
    3.1980   -6.9150    6.2707 C   0  0  0  0  0  0  0  0  0  0  0  0
    4.0168   -6.4849    3.7770 C   0  0  2  0  0  0  0  0  0  0  0  0
    5.0581   -5.4488    3.7864 C   0  0  1  0  0  0  0  0  0  0  0  0
    5.4319   -4.9123    5.1882 C   0  0  0  0  0  0  0  0  0  0  0  0
    6.4274   -6.1972    3.2437 C   0  0  0  0  0  0  0  0  0  0  0  0
    6.6590   -7.7717    2.9118 C   0  0  0  0  0  0  0  0  0  0  0  0
    7.7801   -8.1078    2.5364 O   0  0  0  0  0  0  0  0  0  0  0  0
    5.6029   -8.7636    3.0498 O   0  0  0  0  0  0  0  0  0  0  0  0
    4.5983   -9.3177    2.0435 C   0  0  2  0  0  0  0  0  0  0  0  0
    4.4615   -8.1301    1.2525 C   0  0  0  0  0  0  0  0  0  0  0  0
    3.9352   -6.9150    2.1432 C   0  0  1  0  0  0  0  0  0  0  0  0
    4.7411   -6.2078    1.0982 O   0  0  0  0  0  0  0  0  0  0  0  0
    3.0036   -9.9439    2.4801 C   0  0  1  0  0  0  0  0  0  0  0  0
    3.3877  -11.1617    3.2559 C   0  0  1  0  0  0  0  0  0  0  0  0
    4.5492  -11.8776    2.8790 O   0  0  0  0  0  0  0  0  0  0  0  0
    3.6237  -10.0959    4.2473 C   0  0  0  0  0  0  0  0  0  0  0  0
    2.9187   -8.6858    3.6760 C   0  0  2  0  0  0  0  0  0  0  0  0
    1.7555   -9.2179    3.5225 C   0  0  2  0  0  0  0  0  0  0  0  0
    0.8582  -10.2580    4.2955 C   0  0  0  0  0  0  0  0  0  0  0  0
    4.3558   -4.2693    2.9782 C   0  0  1  0  0  0  0  0  0  0  0  0
    5.4399   -3.7116    2.2658 O   0  0  0  0  0  0  0  0  0  0  0  0
    3.2698   -2.0455    1.3518 O   0  0  0  0  0  0  0  0  0  0  0  0
    4.2249   -1.5193    0.5478 C   0  0  0  0  0  0  0  0  0  0  0  0
    4.7419   -0.4145    0.6798 O   0  0  0  0  0  0  0  0  0  0  0  0
    6.5845   -2.0897   -0.9786 H   0  0  0  0  0  0  0  0  0  0  0  0
    5.4088   -1.5038   -2.1577 H   0  0  0  0  0  0  0  0  0  0  0  0
    5.8193   -3.2244   -2.0802 H   0  0  0  0  0  0  0  0  0  0  0  0
    3.7883   -4.4944   -0.8300 H   0  0  0  0  0  0  0  0  0  0  0  0
    1.8746   -3.3026    0.5479 H   0  0  0  0  0  0  0  0  0  0  0  0
    2.1074   -2.9907    3.0683 H   0  0  0  0  0  0  0  0  0  0  0  0
    0.3210   -7.0029    1.5020 H   0  0  0  0  0  0  0  0  0  0  0  0
   -0.5481   -7.0618    3.8046 H   0  0  0  0  0  0  0  0  0  0  0  0
    0.9397   -8.0144    5.3382 H   0  0  0  0  0  0  0  0  0  0  0  0
    2.5265   -4.3647    5.2080 H   0  0  0  0  0  0  0  0  0  0  0  0
    1.5127   -5.3025    6.2616 H   0  0  0  0  0  0  0  0  0  0  0  0
    0.9840   -5.0476    4.6712 H   0  0  0  0  0  0  0  0  0  0  0  0
    3.6132   -6.0500    6.7886 H   0  0  0  0  0  0  0  0  0  0  0  0
    3.9907   -7.6622    6.3168 H   0  0  0  0  0  0  0  0  0  0  0  0
    2.4011   -7.2956    6.9130 H   0  0  0  0  0  0  0  0  0  0  0  0
    4.6493   -7.1488    4.3397 H   0  0  0  0  0  0  0  0  0  0  0  0
    6.2278   -4.1757    5.0971 H   0  0  0  0  0  0  0  0  0  0  0  0
    5.7919   -5.7085    5.8431 H   0  0  0  0  0  0  0  0  0  0  0  0
    4.6115   -4.3994    5.6884 H   0  0  0  0  0  0  0  0  0  0  0  0
    6.7866   -5.6795    2.3548 H   0  0  0  0  0  0  0  0  0  0  0  0
    7.2065   -5.9770    3.9697 H   0  0  0  0  0  0  0  0  0  0  0  0
    5.1027  -10.0586    1.4264 H   0  0  0  0  0  0  0  0  0  0  0  0
    5.4347   -8.1279    0.7231 H   0  0  0  0  0  0  0  0  0  0  0  0
    3.7892   -8.3550    0.4185 H   0  0  0  0  0  0  0  0  0  0  0  0
    4.3618   -5.3606    0.9137 H   0  0  0  0  0  0  0  0  0  0  0  0
    2.5174  -10.2636    1.5556 H   0  0  0  0  0  0  0  0  0  0  0  0
    2.5904  -11.8668    3.4874 H   0  0  0  0  0  0  0  0  0  0  0  0
    4.4852  -12.0212    1.9166 H   0  0  0  0  0  0  0  0  0  0  0  0
    3.2179  -10.4264    5.2082 H   0  0  0  0  0  0  0  0  0  0  0  0
    4.6695  -10.0827    4.5503 H   0  0  0  0  0  0  0  0  0  0  0  0
    3.4170   -8.5738    4.6326 H   0  0  0  0  0  0  0  0  0  0  0  0
    0.6539  -11.1519    3.7040 H   0  0  0  0  0  0  0  0  0  0  0  0
   -0.1347   -9.8310    4.4498 H   0  0  0  0  0  0  0  0  0  0  0  0
    1.1997  -10.5485    5.2901 H   0  0  0  0  0  0  0  0  0  0  0  0
    4.1329   -3.4799    3.6921 H   0  0  0  0  0  0  0  0  0  0  0  0
    5.7065   -4.3116    1.5782 H   0  0  0  0  0  0  0  0  0  0  0  0
  1  2  1  0
  1 39  1  0
  1 40  1  0
  1 41  1  0
  2 37  1  0
  2  3  2  0
  3  4  1  0
  3 42  1  0
  4  5  1  0
  4 36  1  0
  4 43  1  6
  5 34  1  0
  5  6  1  1
  5  7  1  0
  6 44  1  0
  7  8  2  0
  9  7  1  1
  9 25  1  0
  9 31  1  0
  9 10  1  0
 10 11  2  0
 10 45  1  0
 11 12  1  0
 11 46  1  0
 12 32  1  0
 12 13  1  0
 12 47  1  1
 13 14  1  0
 13 15  1  0
 13 16  1  0
 14 48  1  0
 14 49  1  0
 14 50  1  0
 15 51  1  0
 15 52  1  0
 15 53  1  0
 16 25  1  0
 16 17  1  0
 16 54  1  1
 17 18  1  1
 17 19  1  0
 17 34  1  0
 18 55  1  0
 18 56  1  0
 18 57  1  0
 19 20  1  0
 19 58  1  0
 19 59  1  0
 20 21  2  0
 20 22  1  0
 22 23  1  0
 23 24  1  0
 23 27  1  0
 23 60  1  6
 24 25  1  0
 24 61  1  0
 24 62  1  0
 25 26  1  6
 26 63  1  0
 27 32  1  0
 27 28  1  0
 27 64  1  6
 28 29  1  0
 28 30  1  0
 28 65  1  1
 29 66  1  0
 30 31  1  0
 30 67  1  0
 30 68  1  0
 31 32  1  0
 31 69  1  1
 32 33  1  1
 33 70  1  0
 33 71  1  0
 33 72  1  0
 34 35  1  0
 34 73  1  1
 35 74  1  0
 36 37  1  0
 37 38  2  0
M  END
>  <i_m_ct_stereo_status>  (39) 
1

>  <s_m_source_file>  (39) 
/var/tmp/pbs.5076255.sched01/tmp6mkrr40i/0ze8ciewu.sdf

>  <i_m_source_file_index>  (39) 
20

>  <i_lp_mmshare_version>  (39) 
48012

>  <i_f3d_flags>  (39) 
2

>  <s_epik_input>  (39) 
W0NIM11DMT1bQ0hdW0NASF0oT0MxPU8pW0NAQF0oW09IXSkoQzI9TylbQ0BIXShbT0hdKVtDQF0oW0NIM10pKFtDSF0zW0NAQF00KFtDQF0yNTYpW09IXSlbQ0gyXUMoPU8pT1tDQEhdKFtDSDJdNClbQ0BIXTdbQ0BAXShbQ0gzXSkoW0NASF0oW0NIXT1bQ0hdNSlDMyhbQ0gzXSlbQ0gzXSlbQ0BASF02W0NIMl1bQ0BASF03W09IXQ==

>  <s_epik_cmdline>  (39) 
J2VwaWtfcHl0aG9uJywgJy1waHQnLCAnMi4wJywgJy1waCcsICc3LjAnLCAnLXRuJywgJzgnLCAnLW1hJywgJzIwMCcsICctaW1hZScsICc8aW5maWxlLm1hZT4nLCAnLW9tYWUnLCAnPG91dGZpbGUubWFlPic=

>  <r_lp_tautomer_probability>  (39) 
1

>  <r_epik_Ionization_Penalty>  (39) 
1.98174e-06

>  <r_epik_Ionization_Penalty_Charging>  (39) 
0

>  <r_epik_Ionization_Penalty_Neutral>  (39) 
1.98174e-06

>  <r_epik_State_Penalty>  (39) 
-0

>  <r_epik_Charging_Adjusted_Penalty>  (39) 
0

>  <i_epik_Tot_Q>  (39) 
0

>  <i_epik_Tot_abs_Q>  (39) 
0

>  <s_epik_Chemistry_Notes>  (39) 
This compound has an ester and may undergo hydrolysis at high or low pH.

>  <s_lp_Force_Field>  (39) 
OPLS3e

>  <r_lp_Energy>  (39) 
898.413

>  <b_lp_Chiralities_Consistent>  (39) 
0

>  <s_lp_Variant>  (39) 
13:0-1

>  <s_i_glide_gridfile>  (39) 
pfpi4k_grid

>  <i_i_glide_lignum>  (39) 
20

>  <i_i_glide_rotatable_bonds>  (39) 
5

>  <r_i_docking_score>  (39) 
-2.76858

>  <r_i_glide_ligand_efficiency>  (39) 
-0.0728574

>  <r_i_glide_ligand_efficiency_sa>  (39) 
-0.244945

>  <r_i_glide_ligand_efficiency_ln>  (39) 
-0.596987

>  <r_i_glide_gscore>  (39) 
-2.76858

>  <r_i_glide_lipo>  (39) 
-0.0457516

>  <r_i_glide_hbond>  (39) 
-0.049751

>  <r_i_glide_metal>  (39) 
-0

>  <r_i_glide_rewards>  (39) 
-0.0299136

>  <r_i_glide_evdw>  (39) 
-35.5266

>  <r_i_glide_ecoul>  (39) 
-6.03445

>  <r_i_glide_erotb>  (39) 
0.0737358

>  <r_i_glide_esite>  (39) 
-0.0354019

>  <r_i_glide_emodel>  (39) 
-46.2722

>  <r_i_glide_energy>  (39) 
-41.5611

>  <r_i_glide_einternal>  (39) 
4.77649

>  <r_i_glide_intrahb_reward>  (39) 
-0

>  <i_i_glide_confnum>  (39) 
4

>  <i_i_glide_posenum>  (39) 
38

>  <r_i_glide_eff_state_penalty>  (39) 
0

>  <ligand_id>  (39) 
13

>  <original_smiles>  (39) 
CC1=CC(C2(O)C(=O)C34C=CC5C(C)(C)C6C(C)(CC(=O)OC(CC63O)C3C(O)CC4C35C)C2O)OC1=O

>  <smiles>  (39) 
[H]OC1([H])C([H])([H])C2([H])C34C(=O)C(O[H])(C5([H])OC(=O)C(C([H])([H])[H])=C5[H])C([H])(O[H])C5(C([H])([H])[H])C([H])([H])C(=O)OC6([H])C([H])([H])C3(O[H])C5([H])C(C([H])([H])[H])(C([H])([H])[H])C([H])(C([H])=C4[H])C2(C([H])([H])[H])C16[H]

$$$$
15:0:0
     RDKit          3D

 22 24  0  0  1  0  0  0  0  0999 V2000
    2.1099   -9.7134    6.0276 C   0  0  0  0  0  0  0  0  0  0  0  0
    2.9357   -8.6022    5.7588 C   0  0  0  0  0  0  0  0  0  0  0  0
    2.7308   -7.8280    4.5997 C   0  0  0  0  0  0  0  0  0  0  0  0
    1.6902   -8.1746    3.7112 C   0  0  0  0  0  0  0  0  0  0  0  0
    0.8806   -9.3041    3.9688 C   0  0  0  0  0  0  0  0  0  0  0  0
    1.0827  -10.0709    5.1319 C   0  0  0  0  0  0  0  0  0  0  0  0
   -0.2175   -9.6685    2.9798 C   0  0  0  0  0  0  0  0  0  0  0  0
   -0.8417   -8.4216    2.3338 C   0  0  0  0  0  0  0  0  0  0  0  0
    0.2284   -7.4784    1.8984 C   0  0  0  0  0  0  0  0  0  0  0  0
    0.2002   -6.6506    0.8519 N   0  0  0  0  0  0  0  0  0  0  0  0
    1.4311   -5.9956    0.8601 N   0  0  0  0  0  0  0  0  0  0  0  0
    2.0961   -6.4890    1.9125 C   0  0  0  0  0  0  0  0  0  0  0  0
    1.3777   -7.3975    2.5740 N   0  0  0  0  0  0  0  0  0  0  0  0
    2.2625  -10.2991    6.9230 H   0  0  0  0  0  0  0  0  0  0  0  0
    3.7223   -8.3405    6.4529 H   0  0  0  0  0  0  0  0  0  0  0  0
    3.3576   -6.9671    4.4162 H   0  0  0  0  0  0  0  0  0  0  0  0
    0.4503  -10.9245    5.3491 H   0  0  0  0  0  0  0  0  0  0  0  0
    0.2284  -10.2877    2.2005 H   0  0  0  0  0  0  0  0  0  0  0  0
   -0.9871  -10.2596    3.4579 H   0  0  0  0  0  0  0  0  0  0  0  0
   -1.4749   -8.6929    1.4892 H   0  0  0  0  0  0  0  0  0  0  0  0
   -1.4667   -7.9043    3.0624 H   0  0  0  0  0  0  0  0  0  0  0  0
    3.0946   -6.1851    2.1854 H   0  0  0  0  0  0  0  0  0  0  0  0
  1  6  2  0
  1  2  1  0
  1 14  1  0
  2  3  2  0
  2 15  1  0
  3  4  1  0
  3 16  1  0
  4 13  1  0
  4  5  2  0
  5  6  1  0
  5  7  1  0
  6 17  1  0
  7  8  1  0
  7 18  1  0
  7 19  1  0
  8  9  1  0
  8 20  1  0
  8 21  1  0
  9 13  1  0
  9 10  2  0
 10 11  1  0
 11 12  2  0
 12 13  1  0
 12 22  1  0
M  END
>  <i_m_ct_stereo_status>  (40) 
1

>  <s_m_source_file>  (40) 
/var/tmp/pbs.5076255.sched01/tmp6mkrr40i/0ze8ciewu.sdf

>  <i_m_source_file_index>  (40) 
22

>  <i_lp_mmshare_version>  (40) 
48012

>  <i_f3d_flags>  (40) 
0

>  <s_epik_input>  (40) 
W2NIXTFbY0hdW2NIXVtjSF1jKGMxMilbQ0gyXVtDSDJdYzNuMltjSF1ubjM=

>  <s_epik_cmdline>  (40) 
J2VwaWtfcHl0aG9uJywgJy1waHQnLCAnMi4wJywgJy1waCcsICc3LjAnLCAnLXRuJywgJzgnLCAnLW1hJywgJzIwMCcsICctaW1hZScsICc8aW5maWxlLm1hZT4nLCAnLW9tYWUnLCAnPG91dGZpbGUubWFlPic=

>  <r_lp_tautomer_probability>  (40) 
1

>  <r_epik_Ionization_Penalty>  (40) 
5.58769e-05

>  <r_epik_Ionization_Penalty_Charging>  (40) 
0

>  <r_epik_Ionization_Penalty_Neutral>  (40) 
5.58769e-05

>  <r_epik_State_Penalty>  (40) 
-0

>  <r_epik_Charging_Adjusted_Penalty>  (40) 
0

>  <i_epik_Tot_Q>  (40) 
0

>  <i_epik_Tot_abs_Q>  (40) 
0

>  <s_lp_Force_Field>  (40) 
OPLS3e

>  <r_lp_Energy>  (40) 
19.364

>  <b_lp_Chiralities_Consistent>  (40) 
1

>  <s_lp_Variant>  (40) 
15:0-1

>  <s_i_glide_gridfile>  (40) 
pfpi4k_grid

>  <i_i_glide_lignum>  (40) 
22

>  <i_i_glide_rotatable_bonds>  (40) 
0

>  <r_i_docking_score>  (40) 
-4.09612

>  <r_i_glide_ligand_efficiency>  (40) 
-0.315086

>  <r_i_glide_ligand_efficiency_sa>  (40) 
-0.740874

>  <r_i_glide_ligand_efficiency_ln>  (40) 
-1.149

>  <r_i_glide_gscore>  (40) 
-4.09612

>  <r_i_glide_lipo>  (40) 
0

>  <r_i_glide_hbond>  (40) 
0

>  <r_i_glide_metal>  (40) 
-0

>  <r_i_glide_rewards>  (40) 
-2.24183

>  <r_i_glide_evdw>  (40) 
-15.2529

>  <r_i_glide_ecoul>  (40) 
-5.24695

>  <r_i_glide_erotb>  (40) 
0

>  <r_i_glide_esite>  (40) 
-0.304611

>  <r_i_glide_emodel>  (40) 
-26.633

>  <r_i_glide_energy>  (40) 
-20.4998

>  <r_i_glide_einternal>  (40) 
0

>  <r_i_glide_intrahb_reward>  (40) 
-0

>  <i_i_glide_confnum>  (40) 
1

>  <i_i_glide_posenum>  (40) 
1

>  <r_i_glide_eff_state_penalty>  (40) 
0

>  <ligand_id>  (40) 
15

>  <original_smiles>  (40) 
c1ccc2c(c1)CCc1nncn1-2

>  <smiles>  (40) 
[H]c1c([H])c([H])c2c(c1[H])-n1c([H])nnc1C([H])([H])C2([H])[H]

$$$$
15:0:1
     RDKit          3D

 22 24  0  0  1  0  0  0  0  0999 V2000
    3.8245   -1.1340   -3.6977 C   0  0  0  0  0  0  0  0  0  0  0  0
    3.0378   -2.3013   -3.7659 C   0  0  0  0  0  0  0  0  0  0  0  0
    2.7920   -3.0539   -2.6020 C   0  0  0  0  0  0  0  0  0  0  0  0
    3.3497   -2.6533   -1.3685 C   0  0  0  0  0  0  0  0  0  0  0  0
    4.1626   -1.4950   -1.3058 C   0  0  0  0  0  0  0  0  0  0  0  0
    4.3909   -0.7398   -2.4685 C   0  0  0  0  0  0  0  0  0  0  0  0
    4.7512   -1.0734    0.0326 C   0  0  0  0  0  0  0  0  0  0  0  0
    3.8171   -1.4367    1.2074 C   0  0  0  0  0  0  0  0  0  0  0  0
    3.2838   -2.8262    1.0603 C   0  0  0  0  0  0  0  0  0  0  0  0
    2.9648   -3.6928    2.0296 N   0  0  0  0  0  0  0  0  0  0  0  0
    2.5373   -4.8485    1.3745 N   0  0  0  0  0  0  0  0  0  0  0  0
    2.6253   -4.5728    0.0698 C   0  0  0  0  0  0  0  0  0  0  0  0
    3.0792   -3.3367   -0.1564 N   0  0  0  0  0  0  0  0  0  0  0  0
    3.9910   -0.5386   -4.5862 H   0  0  0  0  0  0  0  0  0  0  0  0
    2.6088   -2.6157   -4.7059 H   0  0  0  0  0  0  0  0  0  0  0  0
    2.1594   -3.9228   -2.6709 H   0  0  0  0  0  0  0  0  0  0  0  0
    4.9870    0.1557   -2.4118 H   0  0  0  0  0  0  0  0  0  0  0  0
    5.6829   -1.6249    0.1524 H   0  0  0  0  0  0  0  0  0  0  0  0
    5.0007   -0.0097    0.0510 H   0  0  0  0  0  0  0  0  0  0  0  0
    4.3250   -1.3334    2.1625 H   0  0  0  0  0  0  0  0  0  0  0  0
    2.9628   -0.7620    1.2040 H   0  0  0  0  0  0  0  0  0  0  0  0
    2.3602   -5.2670   -0.7062 H   0  0  0  0  0  0  0  0  0  0  0  0
  1  6  2  0
  1  2  1  0
  1 14  1  0
  2  3  2  0
  2 15  1  0
  3  4  1  0
  3 16  1  0
  4 13  1  0
  4  5  2  0
  5  6  1  0
  5  7  1  0
  6 17  1  0
  7  8  1  0
  7 18  1  0
  7 19  1  0
  8  9  1  0
  8 20  1  0
  8 21  1  0
  9 13  1  0
  9 10  2  0
 10 11  1  0
 11 12  2  0
 12 13  1  0
 12 22  1  0
M  END
>  <i_m_ct_stereo_status>  (41) 
1

>  <s_m_source_file>  (41) 
/var/tmp/pbs.5076255.sched01/tmp6mkrr40i/0ze8ciewu.sdf

>  <i_m_source_file_index>  (41) 
22

>  <i_lp_mmshare_version>  (41) 
48012

>  <i_f3d_flags>  (41) 
0

>  <s_epik_input>  (41) 
W2NIXTFbY0hdW2NIXVtjSF1jKGMxMilbQ0gyXVtDSDJdYzNuMltjSF1ubjM=

>  <s_epik_cmdline>  (41) 
J2VwaWtfcHl0aG9uJywgJy1waHQnLCAnMi4wJywgJy1waCcsICc3LjAnLCAnLXRuJywgJzgnLCAnLW1hJywgJzIwMCcsICctaW1hZScsICc8aW5maWxlLm1hZT4nLCAnLW9tYWUnLCAnPG91dGZpbGUubWFlPic=

>  <r_lp_tautomer_probability>  (41) 
1

>  <r_epik_Ionization_Penalty>  (41) 
5.58769e-05

>  <r_epik_Ionization_Penalty_Charging>  (41) 
0

>  <r_epik_Ionization_Penalty_Neutral>  (41) 
5.58769e-05

>  <r_epik_State_Penalty>  (41) 
-0

>  <r_epik_Charging_Adjusted_Penalty>  (41) 
0

>  <i_epik_Tot_Q>  (41) 
0

>  <i_epik_Tot_abs_Q>  (41) 
0

>  <s_lp_Force_Field>  (41) 
OPLS3e

>  <r_lp_Energy>  (41) 
19.364

>  <b_lp_Chiralities_Consistent>  (41) 
1

>  <s_lp_Variant>  (41) 
15:0-1

>  <s_i_glide_gridfile>  (41) 
pfpi4k_grid

>  <i_i_glide_lignum>  (41) 
22

>  <i_i_glide_rotatable_bonds>  (41) 
0

>  <r_i_docking_score>  (41) 
-3.97208

>  <r_i_glide_ligand_efficiency>  (41) 
-0.305545

>  <r_i_glide_ligand_efficiency_sa>  (41) 
-0.718438

>  <r_i_glide_ligand_efficiency_ln>  (41) 
-1.1142

>  <r_i_glide_gscore>  (41) 
-3.97208

>  <r_i_glide_lipo>  (41) 
-0.401041

>  <r_i_glide_hbond>  (41) 
0

>  <r_i_glide_metal>  (41) 
-0

>  <r_i_glide_rewards>  (41) 
-2.26167

>  <r_i_glide_evdw>  (41) 
-19.0081

>  <r_i_glide_ecoul>  (41) 
-1.8367

>  <r_i_glide_erotb>  (41) 
0

>  <r_i_glide_esite>  (41) 
-0.0834547

>  <r_i_glide_emodel>  (41) 
-26.7988

>  <r_i_glide_energy>  (41) 
-20.8448

>  <r_i_glide_einternal>  (41) 
0

>  <r_i_glide_intrahb_reward>  (41) 
-0

>  <i_i_glide_confnum>  (41) 
1

>  <i_i_glide_posenum>  (41) 
12

>  <r_i_glide_eff_state_penalty>  (41) 
0

>  <ligand_id>  (41) 
15

>  <original_smiles>  (41) 
c1ccc2c(c1)CCc1nncn1-2

>  <smiles>  (41) 
[H]c1c([H])c([H])c2c(c1[H])-n1c([H])nnc1C([H])([H])C2([H])[H]

$$$$
15:0:2
     RDKit          3D

 22 24  0  0  1  0  0  0  0  0999 V2000
    1.8668   -6.8395    7.2216 C   0  0  0  0  0  0  0  0  0  0  0  0
    2.5356   -5.8923    6.4169 C   0  0  0  0  0  0  0  0  0  0  0  0
    2.2753   -5.8248    5.0327 C   0  0  0  0  0  0  0  0  0  0  0  0
    1.3363   -6.7100    4.4596 C   0  0  0  0  0  0  0  0  0  0  0  0
    0.6818   -7.6738    5.2647 C   0  0  0  0  0  0  0  0  0  0  0  0
    0.9447   -7.7371    6.6461 C   0  0  0  0  0  0  0  0  0  0  0  0
   -0.3048   -8.6379    4.6200 C   0  0  0  0  0  0  0  0  0  0  0  0
   -1.0504   -7.9811    3.4383 C   0  0  0  0  0  0  0  0  0  0  0  0
   -0.0988   -7.2221    2.5642 C   0  0  0  0  0  0  0  0  0  0  0  0
   -0.1853   -7.0009    1.2478 N   0  0  0  0  0  0  0  0  0  0  0  0
    0.9449   -6.2596    0.9079 N   0  0  0  0  0  0  0  0  0  0  0  0
    1.6112   -6.0835    2.0559 C   0  0  0  0  0  0  0  0  0  0  0  0
    0.9857   -6.6459    3.0925 N   0  0  0  0  0  0  0  0  0  0  0  0
    2.0660   -6.8800    8.2841 H   0  0  0  0  0  0  0  0  0  0  0  0
    3.2447   -5.2083    6.8642 H   0  0  0  0  0  0  0  0  0  0  0  0
    2.7835   -5.0817    4.4302 H   0  0  0  0  0  0  0  0  0  0  0  0
    0.4378   -8.4673    7.2636 H   0  0  0  0  0  0  0  0  0  0  0  0
    0.2686   -9.4792    4.2346 H   0  0  0  0  0  0  0  0  0  0  0  0
   -1.0024   -9.0490    5.3515 H   0  0  0  0  0  0  0  0  0  0  0  0
   -1.5981   -8.7171    2.8499 H   0  0  0  0  0  0  0  0  0  0  0  0
   -1.7714   -7.2621    3.8303 H   0  0  0  0  0  0  0  0  0  0  0  0
    2.5388   -5.5421    2.1252 H   0  0  0  0  0  0  0  0  0  0  0  0
  1  6  2  0
  1  2  1  0
  1 14  1  0
  2  3  2  0
  2 15  1  0
  3  4  1  0
  3 16  1  0
  4 13  1  0
  4  5  2  0
  5  6  1  0
  5  7  1  0
  6 17  1  0
  7  8  1  0
  7 18  1  0
  7 19  1  0
  8  9  1  0
  8 20  1  0
  8 21  1  0
  9 13  1  0
  9 10  2  0
 10 11  1  0
 11 12  2  0
 12 13  1  0
 12 22  1  0
M  END
>  <i_m_ct_stereo_status>  (42) 
1

>  <s_m_source_file>  (42) 
/var/tmp/pbs.5076255.sched01/tmp6mkrr40i/0ze8ciewu.sdf

>  <i_m_source_file_index>  (42) 
22

>  <i_lp_mmshare_version>  (42) 
48012

>  <i_f3d_flags>  (42) 
0

>  <s_epik_input>  (42) 
W2NIXTFbY0hdW2NIXVtjSF1jKGMxMilbQ0gyXVtDSDJdYzNuMltjSF1ubjM=

>  <s_epik_cmdline>  (42) 
J2VwaWtfcHl0aG9uJywgJy1waHQnLCAnMi4wJywgJy1waCcsICc3LjAnLCAnLXRuJywgJzgnLCAnLW1hJywgJzIwMCcsICctaW1hZScsICc8aW5maWxlLm1hZT4nLCAnLW9tYWUnLCAnPG91dGZpbGUubWFlPic=

>  <r_lp_tautomer_probability>  (42) 
1

>  <r_epik_Ionization_Penalty>  (42) 
5.58769e-05

>  <r_epik_Ionization_Penalty_Charging>  (42) 
0

>  <r_epik_Ionization_Penalty_Neutral>  (42) 
5.58769e-05

>  <r_epik_State_Penalty>  (42) 
-0

>  <r_epik_Charging_Adjusted_Penalty>  (42) 
0

>  <i_epik_Tot_Q>  (42) 
0

>  <i_epik_Tot_abs_Q>  (42) 
0

>  <s_lp_Force_Field>  (42) 
OPLS3e

>  <r_lp_Energy>  (42) 
19.364

>  <b_lp_Chiralities_Consistent>  (42) 
1

>  <s_lp_Variant>  (42) 
15:0-1

>  <s_i_glide_gridfile>  (42) 
pfpi4k_grid

>  <i_i_glide_lignum>  (42) 
22

>  <i_i_glide_rotatable_bonds>  (42) 
0

>  <r_i_docking_score>  (42) 
-3.82054

>  <r_i_glide_ligand_efficiency>  (42) 
-0.293887

>  <r_i_glide_ligand_efficiency_sa>  (42) 
-0.691028

>  <r_i_glide_ligand_efficiency_ln>  (42) 
-1.07169

>  <r_i_glide_gscore>  (42) 
-3.82054

>  <r_i_glide_lipo>  (42) 
0

>  <r_i_glide_hbond>  (42) 
0

>  <r_i_glide_metal>  (42) 
-0

>  <r_i_glide_rewards>  (42) 
-2.24183

>  <r_i_glide_evdw>  (42) 
-14.0707

>  <r_i_glide_ecoul>  (42) 
-3.50206

>  <r_i_glide_erotb>  (42) 
0

>  <r_i_glide_esite>  (42) 
-0.349865

>  <r_i_glide_emodel>  (42) 
-23.3139

>  <r_i_glide_energy>  (42) 
-17.5727

>  <r_i_glide_einternal>  (42) 
0

>  <r_i_glide_intrahb_reward>  (42) 
-0

>  <i_i_glide_confnum>  (42) 
2

>  <i_i_glide_posenum>  (42) 
5

>  <r_i_glide_eff_state_penalty>  (42) 
0

>  <ligand_id>  (42) 
15

>  <original_smiles>  (42) 
c1ccc2c(c1)CCc1nncn1-2

>  <smiles>  (42) 
[H]c1c([H])c([H])c2c(c1[H])-n1c([H])nnc1C([H])([H])C2([H])[H]

$$$$
16:0:0
     RDKit          3D

 39 42  0  0  1  0  0  0  0  0999 V2000
    3.8102   -1.1478   -4.4668 O   0  0  0  0  0  0  0  0  0  0  0  0
    4.0787   -0.8810   -3.1080 C   0  0  0  0  0  0  0  0  0  0  0  0
    4.3339   -2.2022   -2.3509 C   0  0  2  0  0  0  0  0  0  0  0  0
    3.1564   -2.6298   -1.6640 O   0  0  0  0  0  0  0  0  0  0  0  0
    3.4332   -2.9578   -0.3309 C   0  0  1  0  0  0  0  0  0  0  0  0
    2.6629   -4.2018    0.0173 N   0  0  0  0  0  0  0  0  0  0  0  0
    1.6871   -4.8169   -0.7175 C   0  0  0  0  0  0  0  0  0  0  0  0
    1.1067   -5.8575   -0.1749 N   0  0  0  0  0  0  0  0  0  0  0  0
    1.7336   -5.9606    1.0526 C   0  0  0  0  0  0  0  0  0  0  0  0
    1.5578   -6.8191    2.1595 C   0  0  0  0  0  0  0  0  0  0  0  0
    0.6715   -7.8349    2.0957 N   0  0  0  0  0  0  0  0  0  0  0  0
   -0.2529   -8.0271    3.1968 C   0  0  0  0  0  0  0  0  0  0  0  0
   -1.5287   -8.7884    2.8955 C   0  0  0  0  0  0  0  0  0  0  0  0
   -1.5819   -7.3064    3.1602 C   0  0  0  0  0  0  0  0  0  0  0  0
    2.2955   -6.5900    3.2648 N   0  0  0  0  0  0  0  0  0  0  0  0
    3.1963   -5.5944    3.2666 C   0  0  0  0  0  0  0  0  0  0  0  0
    3.4693   -4.7071    2.3044 N   0  0  0  0  0  0  0  0  0  0  0  0
    2.7063   -4.9239    1.2000 C   0  0  0  0  0  0  0  0  0  0  0  0
    4.9495   -3.1644   -0.2718 C   0  0  1  0  0  0  0  0  0  0  0  0
    5.3606   -4.4525   -0.7176 O   0  0  0  0  0  0  0  0  0  0  0  0
    5.3851   -2.0791   -1.2426 C   0  0  1  0  0  0  0  0  0  0  0  0
    6.7118   -2.2511   -1.7092 O   0  0  0  0  0  0  0  0  0  0  0  0
    0.3104   -8.1653    1.2124 H   0  0  0  0  0  0  0  0  0  0  0  0
    2.9273   -1.4869   -4.5190 H   0  0  0  0  0  0  0  0  0  0  0  0
    4.9831   -0.2756   -3.0844 H   0  0  0  0  0  0  0  0  0  0  0  0
    3.2831   -0.2815   -2.6564 H   0  0  0  0  0  0  0  0  0  0  0  0
    4.6366   -3.0104   -3.0261 H   0  0  0  0  0  0  0  0  0  0  0  0
    3.0542   -2.1831    0.3419 H   0  0  0  0  0  0  0  0  0  0  0  0
    1.3711   -4.4424   -1.6803 H   0  0  0  0  0  0  0  0  0  0  0  0
    0.1712   -8.2178    4.1809 H   0  0  0  0  0  0  0  0  0  0  0  0
   -1.7194   -9.1251    1.8782 H   0  0  0  0  0  0  0  0  0  0  0  0
   -1.9402   -9.4335    3.6664 H   0  0  0  0  0  0  0  0  0  0  0  0
   -2.0142   -6.9893    4.1069 H   0  0  0  0  0  0  0  0  0  0  0  0
   -1.7880   -6.6647    2.3098 H   0  0  0  0  0  0  0  0  0  0  0  0
    3.7993   -5.4973    4.1582 H   0  0  0  0  0  0  0  0  0  0  0  0
    5.3053   -2.9877    0.7431 H   0  0  0  0  0  0  0  0  0  0  0  0
    4.8298   -4.6898   -1.4651 H   0  0  0  0  0  0  0  0  0  0  0  0
    5.2979   -1.1076   -0.7499 H   0  0  0  0  0  0  0  0  0  0  0  0
    6.7666   -3.1119   -2.1081 H   0  0  0  0  0  0  0  0  0  0  0  0
  1  2  1  0
  1 24  1  0
  2  3  1  0
  2 25  1  0
  2 26  1  0
  3 21  1  0
  3  4  1  0
  3 27  1  6
  4  5  1  0
  5 19  1  0
  5 28  1  1
  5  6  1  0
  6  7  1  0
  6 18  1  0
  7  8  2  0
  7 29  1  0
  8  9  1  0
  9 10  1  0
  9 18  2  0
 10 15  2  0
 10 11  1  0
 11 12  1  0
 11 23  1  0
 12 14  1  0
 12 13  1  0
 12 30  1  0
 13 14  1  0
 13 31  1  0
 13 32  1  0
 14 33  1  0
 14 34  1  0
 15 16  1  0
 16 35  1  0
 16 17  2  0
 17 18  1  0
 19 20  1  0
 19 21  1  0
 19 36  1  1
 20 37  1  0
 21 22  1  0
 21 38  1  1
 22 39  1  0
M  END
>  <i_m_ct_stereo_status>  (43) 
1

>  <s_m_source_file>  (43) 
/var/tmp/pbs.5076255.sched01/tmp6mkrr40i/0ze8ciewu.sdf

>  <i_m_source_file_index>  (43) 
23

>  <i_lp_mmshare_version>  (43) 
48012

>  <i_f3d_flags>  (43) 
0

>  <s_epik_input>  (43) 
W09IXVtDSDJdW0NAQEhdMU9bQ0BIXShbQ0BASF0oW09IXSlbQ0BIXTFbT0hdKW4oW2NIXW4yKWMoYzIzKW5bY0hdW25IXWNcMz1OXFtDSF00W0NIMl1bQ0gyXTQ=

>  <s_epik_cmdline>  (43) 
J2VwaWtfcHl0aG9uJywgJy1waHQnLCAnMi4wJywgJy1waCcsICc3LjAnLCAnLXRuJywgJzgnLCAnLW1hJywgJzIwMCcsICctaW1hZScsICc8aW5maWxlLm1hZT4nLCAnLW9tYWUnLCAnPG91dGZpbGUubWFlPic=

>  <r_lp_tautomer_probability>  (43) 
1

>  <r_epik_Ionization_Penalty>  (43) 
0.000511889

>  <r_epik_Ionization_Penalty_Charging>  (43) 
0

>  <r_epik_Ionization_Penalty_Neutral>  (43) 
0.000511889

>  <r_epik_State_Penalty>  (43) 
-0

>  <r_epik_Charging_Adjusted_Penalty>  (43) 
0

>  <i_epik_Tot_Q>  (43) 
0

>  <i_epik_Tot_abs_Q>  (43) 
0

>  <s_epik_Chemistry_Notes>  (43) 
This compound contains an acetal/aminal-like group ( X-CH(R)-Y where X, Y are N, S, or O) that may be acid/base labile, releasing an aldehyde.

>  <s_lp_Force_Field>  (43) 
OPLS3e

>  <r_lp_Energy>  (43) 
18.7668

>  <b_lp_Chiralities_Consistent>  (43) 
1

>  <s_lp_Variant>  (43) 
16:0-1

>  <s_i_glide_gridfile>  (43) 
pfpi4k_grid

>  <i_i_glide_lignum>  (43) 
23

>  <i_i_glide_rotatable_bonds>  (43) 
7

>  <r_i_docking_score>  (43) 
-4.33664

>  <r_i_glide_ligand_efficiency>  (43) 
-0.19712

>  <r_i_glide_ligand_efficiency_sa>  (43) 
-0.552338

>  <r_i_glide_ligand_efficiency_ln>  (43) 
-1.06003

>  <r_i_glide_gscore>  (43) 
-4.33664

>  <r_i_glide_lipo>  (43) 
-0.206738

>  <r_i_glide_hbond>  (43) 
-0.573816

>  <r_i_glide_metal>  (43) 
-0

>  <r_i_glide_rewards>  (43) 
-1.31383

>  <r_i_glide_evdw>  (43) 
-17.5241

>  <r_i_glide_ecoul>  (43) 
-12.9139

>  <r_i_glide_erotb>  (43) 
0.782954

>  <r_i_glide_esite>  (43) 
-0.211924

>  <r_i_glide_emodel>  (43) 
-37.5283

>  <r_i_glide_energy>  (43) 
-30.438

>  <r_i_glide_einternal>  (43) 
3.54152

>  <r_i_glide_intrahb_reward>  (43) 
-0

>  <i_i_glide_confnum>  (43) 
2

>  <i_i_glide_posenum>  (43) 
24

>  <r_i_glide_eff_state_penalty>  (43) 
0

>  <ligand_id>  (43) 
16

>  <original_smiles>  (43) 
OCC1OC(n2cnc3c(=NC4CC4)[nH]cnc32)C(O)C1O

>  <smiles>  (43) 
[H]OC([H])([H])C1([H])OC([H])(n2c([H])nc3c(N([H])C4([H])C([H])([H])C4([H])[H])nc([H])nc32)C([H])(O[H])C1([H])O[H]

$$$$
16:0:1
     RDKit          3D

 39 42  0  0  1  0  0  0  0  0999 V2000
    6.6148   -0.6784    0.4976 O   0  0  0  0  0  0  0  0  0  0  0  0
    6.6122   -1.8990    1.2158 C   0  0  0  0  0  0  0  0  0  0  0  0
    5.4491   -2.7886    0.7565 C   0  0  2  0  0  0  0  0  0  0  0  0
    5.4593   -4.0245    1.4829 O   0  0  0  0  0  0  0  0  0  0  0  0
    5.2193   -5.0897    0.6108 C   0  0  1  0  0  0  0  0  0  0  0  0
    4.2479   -6.0684    1.2000 N   0  0  0  0  0  0  0  0  0  0  0  0
    4.2614   -7.4427    1.0582 C   0  0  0  0  0  0  0  0  0  0  0  0
    3.3033   -8.0814    1.6729 N   0  0  0  0  0  0  0  0  0  0  0  0
    2.5509   -7.0755    2.2511 C   0  0  0  0  0  0  0  0  0  0  0  0
    1.3712   -7.0752    3.0282 C   0  0  0  0  0  0  0  0  0  0  0  0
    0.7739   -8.2397    3.3500 N   0  0  0  0  0  0  0  0  0  0  0  0
   -0.6671   -8.2812    3.5052 C   0  0  0  0  0  0  0  0  0  0  0  0
   -1.4042   -9.3963    2.7938 C   0  0  0  0  0  0  0  0  0  0  0  0
   -1.5310   -7.9835    2.2996 C   0  0  0  0  0  0  0  0  0  0  0  0
    0.8652   -5.8786    3.4299 N   0  0  0  0  0  0  0  0  0  0  0  0
    1.5211   -4.7532    3.1166 C   0  0  0  0  0  0  0  0  0  0  0  0
    2.6345   -4.6072    2.3957 N   0  0  0  0  0  0  0  0  0  0  0  0
    3.1301   -5.8079    1.9706 C   0  0  0  0  0  0  0  0  0  0  0  0
    4.7384   -4.4886   -0.7067 C   0  0  1  0  0  0  0  0  0  0  0  0
    3.3419   -4.2539   -0.7349 O   0  0  0  0  0  0  0  0  0  0  0  0
    5.5346   -3.2053   -0.7180 C   0  0  1  0  0  0  0  0  0  0  0  0
    4.9885   -2.2688   -1.6287 O   0  0  0  0  0  0  0  0  0  0  0  0
    1.1823   -9.1198    3.0712 H   0  0  0  0  0  0  0  0  0  0  0  0
    7.1676   -0.0542    0.9592 H   0  0  0  0  0  0  0  0  0  0  0  0
    7.5589   -2.4156    1.0665 H   0  0  0  0  0  0  0  0  0  0  0  0
    6.5154   -1.6856    2.2808 H   0  0  0  0  0  0  0  0  0  0  0  0
    4.4926   -2.2997    0.9501 H   0  0  0  0  0  0  0  0  0  0  0  0
    6.1449   -5.6538    0.5046 H   0  0  0  0  0  0  0  0  0  0  0  0
    5.0119   -7.9829    0.4974 H   0  0  0  0  0  0  0  0  0  0  0  0
   -1.0618   -8.0135    4.4861 H   0  0  0  0  0  0  0  0  0  0  0  0
   -0.8325  -10.0912    2.1797 H   0  0  0  0  0  0  0  0  0  0  0  0
   -2.2748   -9.8217    3.2757 H   0  0  0  0  0  0  0  0  0  0  0  0
   -2.4749   -7.4707    2.4819 H   0  0  0  0  0  0  0  0  0  0  0  0
   -1.0171   -7.7293    1.3726 H   0  0  0  0  0  0  0  0  0  0  0  0
    1.0839   -3.8334    3.4735 H   0  0  0  0  0  0  0  0  0  0  0  0
    5.0078   -5.1448   -1.5294 H   0  0  0  0  0  0  0  0  0  0  0  0
    2.9818   -4.8702   -1.3667 H   0  0  0  0  0  0  0  0  0  0  0  0
    6.5707   -3.4167   -0.9883 H   0  0  0  0  0  0  0  0  0  0  0  0
    4.0851   -2.1334   -1.3745 H   0  0  0  0  0  0  0  0  0  0  0  0
  1  2  1  0
  1 24  1  0
  2  3  1  0
  2 25  1  0
  2 26  1  0
  3 21  1  0
  3  4  1  0
  3 27  1  6
  4  5  1  0
  5 19  1  0
  5 28  1  6
  5  6  1  0
  6  7  1  0
  6 18  1  0
  7  8  2  0
  7 29  1  0
  8  9  1  0
  9 10  1  0
  9 18  2  0
 10 15  2  0
 10 11  1  0
 11 12  1  0
 11 23  1  0
 12 14  1  0
 12 13  1  0
 12 30  1  0
 13 14  1  0
 13 31  1  0
 13 32  1  0
 14 33  1  0
 14 34  1  0
 15 16  1  0
 16 35  1  0
 16 17  2  0
 17 18  1  0
 19 20  1  0
 19 21  1  0
 19 36  1  6
 20 37  1  0
 21 22  1  0
 21 38  1  6
 22 39  1  0
M  END
>  <i_m_ct_stereo_status>  (44) 
1

>  <s_m_source_file>  (44) 
/var/tmp/pbs.5076255.sched01/tmp6mkrr40i/0ze8ciewu.sdf

>  <i_m_source_file_index>  (44) 
23

>  <i_lp_mmshare_version>  (44) 
48012

>  <i_f3d_flags>  (44) 
0

>  <s_epik_input>  (44) 
W09IXVtDSDJdW0NAQEhdMU9bQ0BIXShbQ0BASF0oW09IXSlbQ0BIXTFbT0hdKW4oW2NIXW4yKWMoYzIzKW5bY0hdW25IXWNcMz1OXFtDSF00W0NIMl1bQ0gyXTQ=

>  <s_epik_cmdline>  (44) 
J2VwaWtfcHl0aG9uJywgJy1waHQnLCAnMi4wJywgJy1waCcsICc3LjAnLCAnLXRuJywgJzgnLCAnLW1hJywgJzIwMCcsICctaW1hZScsICc8aW5maWxlLm1hZT4nLCAnLW9tYWUnLCAnPG91dGZpbGUubWFlPic=

>  <r_lp_tautomer_probability>  (44) 
1

>  <r_epik_Ionization_Penalty>  (44) 
0.000511889

>  <r_epik_Ionization_Penalty_Charging>  (44) 
0

>  <r_epik_Ionization_Penalty_Neutral>  (44) 
0.000511889

>  <r_epik_State_Penalty>  (44) 
-0

>  <r_epik_Charging_Adjusted_Penalty>  (44) 
0

>  <i_epik_Tot_Q>  (44) 
0

>  <i_epik_Tot_abs_Q>  (44) 
0

>  <s_epik_Chemistry_Notes>  (44) 
This compound contains an acetal/aminal-like group ( X-CH(R)-Y where X, Y are N, S, or O) that may be acid/base labile, releasing an aldehyde.

>  <s_lp_Force_Field>  (44) 
OPLS3e

>  <r_lp_Energy>  (44) 
18.7668

>  <b_lp_Chiralities_Consistent>  (44) 
1

>  <s_lp_Variant>  (44) 
16:0-1

>  <s_i_glide_gridfile>  (44) 
pfpi4k_grid

>  <i_i_glide_lignum>  (44) 
23

>  <i_i_glide_rotatable_bonds>  (44) 
7

>  <r_i_docking_score>  (44) 
-3.56073

>  <r_i_glide_ligand_efficiency>  (44) 
-0.161851

>  <r_i_glide_ligand_efficiency_sa>  (44) 
-0.453513

>  <r_i_glide_ligand_efficiency_ln>  (44) 
-0.870371

>  <r_i_glide_gscore>  (44) 
-3.56073

>  <r_i_glide_lipo>  (44) 
-0.197129

>  <r_i_glide_hbond>  (44) 
0

>  <r_i_glide_metal>  (44) 
-0

>  <r_i_glide_rewards>  (44) 
-1.67009

>  <r_i_glide_evdw>  (44) 
-21.5332

>  <r_i_glide_ecoul>  (44) 
-9.09293

>  <r_i_glide_erotb>  (44) 
0.782954

>  <r_i_glide_esite>  (44) 
-0.0358594

>  <r_i_glide_emodel>  (44) 
-36.3967

>  <r_i_glide_energy>  (44) 
-30.6262

>  <r_i_glide_einternal>  (44) 
3.01408

>  <r_i_glide_intrahb_reward>  (44) 
-0

>  <i_i_glide_confnum>  (44) 
5

>  <i_i_glide_posenum>  (44) 
11

>  <r_i_glide_eff_state_penalty>  (44) 
0

>  <ligand_id>  (44) 
16

>  <original_smiles>  (44) 
OCC1OC(n2cnc3c(=NC4CC4)[nH]cnc32)C(O)C1O

>  <smiles>  (44) 
[H]OC([H])([H])C1([H])OC([H])(n2c([H])nc3c(N([H])C4([H])C([H])([H])C4([H])[H])nc([H])nc32)C([H])(O[H])C1([H])O[H]

$$$$
16:0:2
     RDKit          3D

 39 42  0  0  1  0  0  0  0  0999 V2000
    5.1308   -0.2508    2.1998 O   0  0  0  0  0  0  0  0  0  0  0  0
    5.7268   -0.8854    1.0869 C   0  0  0  0  0  0  0  0  0  0  0  0
    4.7868   -1.9672    0.5425 C   0  0  2  0  0  0  0  0  0  0  0  0
    4.9362   -3.1466    1.3335 O   0  0  0  0  0  0  0  0  0  0  0  0
    4.9838   -4.2759    0.5189 C   0  0  1  0  0  0  0  0  0  0  0  0
    4.1100   -5.3683    1.0500 N   0  0  0  0  0  0  0  0  0  0  0  0
    4.2117   -6.7123    0.7665 C   0  0  0  0  0  0  0  0  0  0  0  0
    3.3478   -7.4842    1.3670 N   0  0  0  0  0  0  0  0  0  0  0  0
    2.5693   -6.6074    2.0956 C   0  0  0  0  0  0  0  0  0  0  0  0
    1.4511   -6.7789    2.9445 C   0  0  0  0  0  0  0  0  0  0  0  0
    0.9529   -8.0114    3.1706 N   0  0  0  0  0  0  0  0  0  0  0  0
   -0.4699   -8.1655    3.4092 C   0  0  0  0  0  0  0  0  0  0  0  0
   -1.1572   -9.3359    2.7397 C   0  0  0  0  0  0  0  0  0  0  0  0
   -1.4208   -7.9387    2.2528 C   0  0  0  0  0  0  0  0  0  0  0  0
    0.9004   -5.6762    3.5116 N   0  0  0  0  0  0  0  0  0  0  0  0
    1.4470   -4.4746    3.2766 C   0  0  0  0  0  0  0  0  0  0  0  0
    2.4887   -4.1686    2.5012 N   0  0  0  0  0  0  0  0  0  0  0  0
    3.0346   -5.2737    1.9145 C   0  0  0  0  0  0  0  0  0  0  0  0
    4.6064   -3.8334   -0.8942 C   0  0  1  0  0  0  0  0  0  0  0  0
    3.2063   -3.8514   -1.1464 O   0  0  0  0  0  0  0  0  0  0  0  0
    5.1548   -2.4231   -0.8731 C   0  0  1  0  0  0  0  0  0  0  0  0
    4.6000   -1.6001   -1.8838 O   0  0  0  0  0  0  0  0  0  0  0  0
    1.3951   -8.8256    2.7714 H   0  0  0  0  0  0  0  0  0  0  0  0
    4.2856    0.0737    1.9342 H   0  0  0  0  0  0  0  0  0  0  0  0
    5.8924   -0.1235    0.3279 H   0  0  0  0  0  0  0  0  0  0  0  0
    6.7022   -1.3009    1.3490 H   0  0  0  0  0  0  0  0  0  0  0  0
    3.7404   -1.6487    0.5497 H   0  0  0  0  0  0  0  0  0  0  0  0
    5.9893   -4.6839    0.5869 H   0  0  0  0  0  0  0  0  0  0  0  0
    4.9600   -7.1238    0.1091 H   0  0  0  0  0  0  0  0  0  0  0  0
   -0.8279   -7.9274    4.4116 H   0  0  0  0  0  0  0  0  0  0  0  0
   -0.5686   -9.9862    2.0950 H   0  0  0  0  0  0  0  0  0  0  0  0
   -1.9641   -9.8299    3.2779 H   0  0  0  0  0  0  0  0  0  0  0  0
   -2.3947   -7.5082    2.4893 H   0  0  0  0  0  0  0  0  0  0  0  0
   -0.9862   -7.6527    1.2947 H   0  0  0  0  0  0  0  0  0  0  0  0
    0.9860   -3.6338    3.7685 H   0  0  0  0  0  0  0  0  0  0  0  0
    5.1097   -4.4685   -1.6213 H   0  0  0  0  0  0  0  0  0  0  0  0
    3.0087   -4.6487   -1.6228 H   0  0  0  0  0  0  0  0  0  0  0  0
    6.2388   -2.4610   -0.9868 H   0  0  0  0  0  0  0  0  0  0  0  0
    3.6567   -1.6314   -1.7748 H   0  0  0  0  0  0  0  0  0  0  0  0
  1  2  1  0
  1 24  1  0
  2  3  1  0
  2 25  1  0
  2 26  1  0
  3 21  1  0
  3  4  1  0
  3 27  1  6
  4  5  1  0
  5 19  1  0
  5 28  1  6
  5  6  1  0
  6  7  1  0
  6 18  1  0
  7  8  2  0
  7 29  1  0
  8  9  1  0
  9 10  1  0
  9 18  2  0
 10 15  2  0
 10 11  1  0
 11 12  1  0
 11 23  1  0
 12 14  1  0
 12 13  1  0
 12 30  1  0
 13 14  1  0
 13 31  1  0
 13 32  1  0
 14 33  1  0
 14 34  1  0
 15 16  1  0
 16 35  1  0
 16 17  2  0
 17 18  1  0
 19 20  1  0
 19 21  1  0
 19 36  1  6
 20 37  1  0
 21 22  1  0
 21 38  1  1
 22 39  1  0
M  END
>  <i_m_ct_stereo_status>  (45) 
1

>  <s_m_source_file>  (45) 
/var/tmp/pbs.5076255.sched01/tmp6mkrr40i/0ze8ciewu.sdf

>  <i_m_source_file_index>  (45) 
23

>  <i_lp_mmshare_version>  (45) 
48012

>  <i_f3d_flags>  (45) 
0

>  <s_epik_input>  (45) 
W09IXVtDSDJdW0NAQEhdMU9bQ0BIXShbQ0BASF0oW09IXSlbQ0BIXTFbT0hdKW4oW2NIXW4yKWMoYzIzKW5bY0hdW25IXWNcMz1OXFtDSF00W0NIMl1bQ0gyXTQ=

>  <s_epik_cmdline>  (45) 
J2VwaWtfcHl0aG9uJywgJy1waHQnLCAnMi4wJywgJy1waCcsICc3LjAnLCAnLXRuJywgJzgnLCAnLW1hJywgJzIwMCcsICctaW1hZScsICc8aW5maWxlLm1hZT4nLCAnLW9tYWUnLCAnPG91dGZpbGUubWFlPic=

>  <r_lp_tautomer_probability>  (45) 
1

>  <r_epik_Ionization_Penalty>  (45) 
0.000511889

>  <r_epik_Ionization_Penalty_Charging>  (45) 
0

>  <r_epik_Ionization_Penalty_Neutral>  (45) 
0.000511889

>  <r_epik_State_Penalty>  (45) 
-0

>  <r_epik_Charging_Adjusted_Penalty>  (45) 
0

>  <i_epik_Tot_Q>  (45) 
0

>  <i_epik_Tot_abs_Q>  (45) 
0

>  <s_epik_Chemistry_Notes>  (45) 
This compound contains an acetal/aminal-like group ( X-CH(R)-Y where X, Y are N, S, or O) that may be acid/base labile, releasing an aldehyde.

>  <s_lp_Force_Field>  (45) 
OPLS3e

>  <r_lp_Energy>  (45) 
18.7668

>  <b_lp_Chiralities_Consistent>  (45) 
1

>  <s_lp_Variant>  (45) 
16:0-1

>  <s_i_glide_gridfile>  (45) 
pfpi4k_grid

>  <i_i_glide_lignum>  (45) 
23

>  <i_i_glide_rotatable_bonds>  (45) 
7

>  <r_i_docking_score>  (45) 
-3.14139

>  <r_i_glide_ligand_efficiency>  (45) 
-0.14279

>  <r_i_glide_ligand_efficiency_sa>  (45) 
-0.400104

>  <r_i_glide_ligand_efficiency_ln>  (45) 
-0.76787

>  <r_i_glide_gscore>  (45) 
-3.14139

>  <r_i_glide_lipo>  (45) 
-0.19869

>  <r_i_glide_hbond>  (45) 
0

>  <r_i_glide_metal>  (45) 
-0

>  <r_i_glide_rewards>  (45) 
-1.5943

>  <r_i_glide_evdw>  (45) 
-22.9665

>  <r_i_glide_ecoul>  (45) 
-6.32557

>  <r_i_glide_erotb>  (45) 
0.782954

>  <r_i_glide_esite>  (45) 
-0.0341891

>  <r_i_glide_emodel>  (45) 
-34.2821

>  <r_i_glide_energy>  (45) 
-29.2921

>  <r_i_glide_einternal>  (45) 
2.92605

>  <r_i_glide_intrahb_reward>  (45) 
-0

>  <i_i_glide_confnum>  (45) 
5

>  <i_i_glide_posenum>  (45) 
17

>  <r_i_glide_eff_state_penalty>  (45) 
0

>  <ligand_id>  (45) 
16

>  <original_smiles>  (45) 
OCC1OC(n2cnc3c(=NC4CC4)[nH]cnc32)C(O)C1O

>  <smiles>  (45) 
[H]OC([H])([H])C1([H])OC([H])(n2c([H])nc3c(N([H])C4([H])C([H])([H])C4([H])[H])nc([H])nc32)C([H])(O[H])C1([H])O[H]

$$$$
17:0:0
     RDKit          3D

 34 36  0  0  1  0  0  0  0  0999 V2000
   -1.4258    4.9416    3.2045 O   0  0  0  0  0  0  0  0  0  0  0  0
   -1.0138    3.9009    4.0589 C   0  0  0  0  0  0  0  0  0  0  0  0
   -0.1643    2.8394    3.3074 C   0  0  2  0  0  0  0  0  0  0  0  0
   -0.1490    1.6124    4.0437 O   0  0  0  0  0  0  0  0  0  0  0  0
    0.5323    1.6356    5.2692 C   0  0  1  0  0  0  0  0  0  0  0  0
    0.3929    0.3493    5.9395 N   0  0  0  0  0  0  0  0  0  0  0  0
    0.2624    0.1971    7.2712 C   0  0  0  0  0  0  0  0  0  0  0  0
    0.1986   -1.0434    7.7527 N   0  0  0  0  0  0  0  0  0  0  0  0
    0.3201   -1.7789    6.5921 C   0  0  0  0  0  0  0  0  0  0  0  0
    0.3596   -3.1715    6.3595 C   0  0  0  0  0  0  0  0  0  0  0  0
    0.4976   -3.6189    5.0901 N   0  0  0  0  0  0  0  0  0  0  0  0
    0.6093   -2.7239    4.1013 C   0  0  0  0  0  0  0  0  0  0  0  0
    0.5807   -1.3894    4.1603 N   0  0  0  0  0  0  0  0  0  0  0  0
    0.4463   -0.9476    5.4421 C   0  0  0  0  0  0  0  0  0  0  0  0
    2.0180    2.0319    5.0826 C   0  0  1  0  0  0  0  0  0  0  0  0
    2.7511    1.0188    4.4278 O   0  0  0  0  0  0  0  0  0  0  0  0
    2.0970    3.3456    4.3060 C   0  0  1  0  0  0  0  0  0  0  0  0
    3.4207    3.7272    4.0489 O   0  0  0  0  0  0  0  0  0  0  0  0
    1.2906    3.2925    3.0092 C   0  0  1  0  0  0  0  0  0  0  0  0
    1.8523    2.3869    2.0753 O   0  0  0  0  0  0  0  0  0  0  0  0
   -0.8686    4.9227    2.4213 H   0  0  0  0  0  0  0  0  0  0  0  0
   -0.4951    4.3313    4.9176 H   0  0  0  0  0  0  0  0  0  0  0  0
   -1.9117    3.4235    4.4627 H   0  0  0  0  0  0  0  0  0  0  0  0
   -0.6620    2.5910    2.3652 H   0  0  0  0  0  0  0  0  0  0  0  0
    0.0421    2.3468    5.9228 H   0  0  0  0  0  0  0  0  0  0  0  0
    0.2226    1.0564    7.9238 H   0  0  0  0  0  0  0  0  0  0  0  0
    0.2731   -3.8996    7.1573 H   0  0  0  0  0  0  0  0  0  0  0  0
    0.7347   -3.1503    3.1236 H   0  0  0  0  0  0  0  0  0  0  0  0
    2.4429    2.1639    6.0790 H   0  0  0  0  0  0  0  0  0  0  0  0
    2.4210    0.9791    3.5339 H   0  0  0  0  0  0  0  0  0  0  0  0
    1.7099    4.1392    4.9359 H   0  0  0  0  0  0  0  0  0  0  0  0
    3.7533    3.1481    3.3805 H   0  0  0  0  0  0  0  0  0  0  0  0
    1.3358    4.2751    2.5400 H   0  0  0  0  0  0  0  0  0  0  0  0
    1.3686    2.4738    1.2643 H   0  0  0  0  0  0  0  0  0  0  0  0
  1  2  1  0
  1 21  1  0
  2  3  1  0
  2 22  1  0
  2 23  1  0
  3 19  1  0
  3  4  1  0
  3 24  1  6
  4  5  1  0
  5  6  1  0
  5 15  1  0
  5 25  1  1
  6 14  1  0
  6  7  1  0
  7  8  2  0
  7 26  1  0
  8  9  1  0
  9 14  2  0
  9 10  1  0
 10 11  2  0
 10 27  1  0
 11 12  1  0
 12 13  2  0
 12 28  1  0
 13 14  1  0
 15 16  1  0
 15 17  1  0
 15 29  1  1
 16 30  1  0
 17 18  1  0
 17 19  1  0
 17 31  1  1
 18 32  1  0
 19 20  1  0
 19 33  1  6
 20 34  1  0
M  END
>  <i_m_ct_stereo_status>  (46) 
1

>  <s_m_source_file>  (46) 
/var/tmp/pbs.5076255.sched01/tmp6mkrr40i/0ze8ciewu.sdf

>  <i_m_source_file_index>  (46) 
24

>  <i_lp_mmshare_version>  (46) 
48012

>  <i_f3d_flags>  (46) 
0

>  <s_epik_input>  (46) 
W09IXVtDSDJdW0NAQEhdMU9bQ0BIXShbQ0BASF0oW09IXSlbQ0BASF0oW09IXSlbQ0BIXTFbT0hdKW4oW2NIXW4yKWMoYzIzKW5bY0hdbltjSF0z

>  <s_epik_cmdline>  (46) 
J2VwaWtfcHl0aG9uJywgJy1waHQnLCAnMi4wJywgJy1waCcsICc3LjAnLCAnLXRuJywgJzgnLCAnLW1hJywgJzIwMCcsICctaW1hZScsICc8aW5maWxlLm1hZT4nLCAnLW9tYWUnLCAnPG91dGZpbGUubWFlPic=

>  <r_lp_tautomer_probability>  (46) 
1

>  <r_epik_Ionization_Penalty>  (46) 
2.98462e-05

>  <r_epik_Ionization_Penalty_Charging>  (46) 
0

>  <r_epik_Ionization_Penalty_Neutral>  (46) 
2.98462e-05

>  <r_epik_State_Penalty>  (46) 
-0

>  <r_epik_Charging_Adjusted_Penalty>  (46) 
0

>  <i_epik_Tot_Q>  (46) 
0

>  <i_epik_Tot_abs_Q>  (46) 
0

>  <s_epik_Chemistry_Notes>  (46) 
This compound contains an acetal/aminal-like group ( X-CH(R)-Y where X, Y are N, S, or O) that may be acid/base labile, releasing an aldehyde.

>  <s_lp_Force_Field>  (46) 
OPLS3e

>  <r_lp_Energy>  (46) 
32.084

>  <b_lp_Chiralities_Consistent>  (46) 
1

>  <s_lp_Variant>  (46) 
17:0-1

>  <s_i_glide_gridfile>  (46) 
pfpi4k_grid

>  <i_i_glide_lignum>  (46) 
24

>  <i_i_glide_rotatable_bonds>  (46) 
6

>  <r_i_docking_score>  (46) 
-4.01245

>  <r_i_glide_ligand_efficiency>  (46) 
-0.200623

>  <r_i_glide_ligand_efficiency_sa>  (46) 
-0.544573

>  <r_i_glide_ligand_efficiency_ln>  (46) 
-1.00418

>  <r_i_glide_gscore>  (46) 
-4.01245

>  <r_i_glide_lipo>  (46) 
0

>  <r_i_glide_hbond>  (46) 
-0.309353

>  <r_i_glide_metal>  (46) 
-0

>  <r_i_glide_rewards>  (46) 
-2.03405

>  <r_i_glide_evdw>  (46) 
-13.1832

>  <r_i_glide_ecoul>  (46) 
-9.45916

>  <r_i_glide_erotb>  (46) 
0.454159

>  <r_i_glide_esite>  (46) 
-0.0451736

>  <r_i_glide_emodel>  (46) 
-34.1462

>  <r_i_glide_energy>  (46) 
-22.6424

>  <r_i_glide_einternal>  (46) 
1.75282

>  <r_i_glide_intrahb_reward>  (46) 
-0.5

>  <i_i_glide_confnum>  (46) 
1

>  <i_i_glide_posenum>  (46) 
17

>  <r_i_glide_eff_state_penalty>  (46) 
0

>  <ligand_id>  (46) 
17

>  <original_smiles>  (46) 
OCC1OC(n2cnc3cncnc32)C(O)C(O)C1O

>  <smiles>  (46) 
[H]OC([H])([H])C1([H])OC([H])(n2c([H])nc3c([H])nc([H])nc32)C([H])(O[H])C([H])(O[H])C1([H])O[H]

$$$$
17:0:1
     RDKit          3D

 34 36  0  0  1  0  0  0  0  0999 V2000
   -1.7866    3.6293    2.8712 O   0  0  0  0  0  0  0  0  0  0  0  0
   -1.4039    2.5325    3.6705 C   0  0  0  0  0  0  0  0  0  0  0  0
   -0.5355    1.4941    2.9159 C   0  0  2  0  0  0  0  0  0  0  0  0
   -0.4962    0.3022    3.7047 O   0  0  0  0  0  0  0  0  0  0  0  0
    0.1905    0.3435    4.9330 C   0  0  1  0  0  0  0  0  0  0  0  0
    0.1051   -0.9925    5.5164 N   0  0  0  0  0  0  0  0  0  0  0  0
   -0.0634   -2.1627    4.8689 C   0  0  0  0  0  0  0  0  0  0  0  0
   -0.0975   -3.2777    5.5983 N   0  0  0  0  0  0  0  0  0  0  0  0
    0.0929   -2.7677    6.8659 C   0  0  0  0  0  0  0  0  0  0  0  0
    0.1820   -3.3848    8.1334 C   0  0  0  0  0  0  0  0  0  0  0  0
    0.3418   -2.6074    9.2282 N   0  0  0  0  0  0  0  0  0  0  0  0
    0.4663   -1.2808    9.0754 C   0  0  0  0  0  0  0  0  0  0  0  0
    0.3908   -0.5591    7.9522 N   0  0  0  0  0  0  0  0  0  0  0  0
    0.2256   -1.3498    6.8545 C   0  0  0  0  0  0  0  0  0  0  0  0
    1.6651    0.7681    4.7089 C   0  0  1  0  0  0  0  0  0  0  0  0
    2.3938   -0.2484    4.0499 O   0  0  0  0  0  0  0  0  0  0  0  0
    1.7069    2.0738    3.8969 C   0  0  1  0  0  0  0  0  0  0  0  0
    3.0178    2.5038    3.6389 O   0  0  0  0  0  0  0  0  0  0  0  0
    0.8999    1.9701    2.5924 C   0  0  1  0  0  0  0  0  0  0  0  0
    1.5094    1.0606    1.6787 O   0  0  0  0  0  0  0  0  0  0  0  0
   -1.0816    3.8209    2.2531 H   0  0  0  0  0  0  0  0  0  0  0  0
   -0.9040    2.9429    4.5436 H   0  0  0  0  0  0  0  0  0  0  0  0
   -2.3097    2.0453    4.0413 H   0  0  0  0  0  0  0  0  0  0  0  0
   -1.0339    1.2264    1.9802 H   0  0  0  0  0  0  0  0  0  0  0  0
   -0.3125    1.0173    5.6266 H   0  0  0  0  0  0  0  0  0  0  0  0
   -0.1631   -2.2035    3.7927 H   0  0  0  0  0  0  0  0  0  0  0  0
    0.1033   -4.4581    8.2647 H   0  0  0  0  0  0  0  0  0  0  0  0
    0.5940   -0.7412    9.9984 H   0  0  0  0  0  0  0  0  0  0  0  0
    2.1212    0.9280    5.6918 H   0  0  0  0  0  0  0  0  0  0  0  0
    2.1166   -0.2359    3.1388 H   0  0  0  0  0  0  0  0  0  0  0  0
    1.2960    2.8676    4.5139 H   0  0  0  0  0  0  0  0  0  0  0  0
    3.3476    1.9814    2.9173 H   0  0  0  0  0  0  0  0  0  0  0  0
    0.8889    2.9387    2.0999 H   0  0  0  0  0  0  0  0  0  0  0  0
    0.9597    0.9567    0.9075 H   0  0  0  0  0  0  0  0  0  0  0  0
  1  2  1  0
  1 21  1  0
  2  3  1  0
  2 22  1  0
  2 23  1  0
  3 19  1  0
  3  4  1  0
  3 24  1  6
  4  5  1  0
  5  6  1  0
  5 15  1  0
  5 25  1  1
  6 14  1  0
  6  7  1  0
  7  8  2  0
  7 26  1  0
  8  9  1  0
  9 14  2  0
  9 10  1  0
 10 11  2  0
 10 27  1  0
 11 12  1  0
 12 13  2  0
 12 28  1  0
 13 14  1  0
 15 16  1  0
 15 17  1  0
 15 29  1  1
 16 30  1  0
 17 18  1  0
 17 19  1  0
 17 31  1  1
 18 32  1  0
 19 20  1  0
 19 33  1  6
 20 34  1  0
M  END
>  <i_m_ct_stereo_status>  (47) 
1

>  <s_m_source_file>  (47) 
/var/tmp/pbs.5076255.sched01/tmp6mkrr40i/0ze8ciewu.sdf

>  <i_m_source_file_index>  (47) 
24

>  <i_lp_mmshare_version>  (47) 
48012

>  <i_f3d_flags>  (47) 
0

>  <s_epik_input>  (47) 
W09IXVtDSDJdW0NAQEhdMU9bQ0BIXShbQ0BASF0oW09IXSlbQ0BASF0oW09IXSlbQ0BIXTFbT0hdKW4oW2NIXW4yKWMoYzIzKW5bY0hdbltjSF0z

>  <s_epik_cmdline>  (47) 
J2VwaWtfcHl0aG9uJywgJy1waHQnLCAnMi4wJywgJy1waCcsICc3LjAnLCAnLXRuJywgJzgnLCAnLW1hJywgJzIwMCcsICctaW1hZScsICc8aW5maWxlLm1hZT4nLCAnLW9tYWUnLCAnPG91dGZpbGUubWFlPic=

>  <r_lp_tautomer_probability>  (47) 
1

>  <r_epik_Ionization_Penalty>  (47) 
2.98462e-05

>  <r_epik_Ionization_Penalty_Charging>  (47) 
0

>  <r_epik_Ionization_Penalty_Neutral>  (47) 
2.98462e-05

>  <r_epik_State_Penalty>  (47) 
-0

>  <r_epik_Charging_Adjusted_Penalty>  (47) 
0

>  <i_epik_Tot_Q>  (47) 
0

>  <i_epik_Tot_abs_Q>  (47) 
0

>  <s_epik_Chemistry_Notes>  (47) 
This compound contains an acetal/aminal-like group ( X-CH(R)-Y where X, Y are N, S, or O) that may be acid/base labile, releasing an aldehyde.

>  <s_lp_Force_Field>  (47) 
OPLS3e

>  <r_lp_Energy>  (47) 
32.084

>  <b_lp_Chiralities_Consistent>  (47) 
1

>  <s_lp_Variant>  (47) 
17:0-1

>  <s_i_glide_gridfile>  (47) 
pfpi4k_grid

>  <i_i_glide_lignum>  (47) 
24

>  <i_i_glide_rotatable_bonds>  (47) 
6

>  <r_i_docking_score>  (47) 
-3.57631

>  <r_i_glide_ligand_efficiency>  (47) 
-0.178815

>  <r_i_glide_ligand_efficiency_sa>  (47) 
-0.48538

>  <r_i_glide_ligand_efficiency_ln>  (47) 
-0.895032

>  <r_i_glide_gscore>  (47) 
-3.57631

>  <r_i_glide_lipo>  (47) 
0

>  <r_i_glide_hbond>  (47) 
-0.174218

>  <r_i_glide_metal>  (47) 
-0

>  <r_i_glide_rewards>  (47) 
-1.98464

>  <r_i_glide_evdw>  (47) 
-15.488

>  <r_i_glide_ecoul>  (47) 
-6.57263

>  <r_i_glide_erotb>  (47) 
0.454159

>  <r_i_glide_esite>  (47) 
-0.111316

>  <r_i_glide_emodel>  (47) 
-32.5407

>  <r_i_glide_energy>  (47) 
-22.0606

>  <r_i_glide_einternal>  (47) 
1.79247

>  <r_i_glide_intrahb_reward>  (47) 
-0.5

>  <i_i_glide_confnum>  (47) 
3

>  <i_i_glide_posenum>  (47) 
30

>  <r_i_glide_eff_state_penalty>  (47) 
0

>  <ligand_id>  (47) 
17

>  <original_smiles>  (47) 
OCC1OC(n2cnc3cncnc32)C(O)C(O)C1O

>  <smiles>  (47) 
[H]OC([H])([H])C1([H])OC([H])(n2c([H])nc3c([H])nc([H])nc32)C([H])(O[H])C([H])(O[H])C1([H])O[H]

$$$$
17:0:2
     RDKit          3D

 34 36  0  0  1  0  0  0  0  0999 V2000
   -1.8156   -9.4674    2.9008 O   0  0  0  0  0  0  0  0  0  0  0  0
   -0.8653   -8.5134    3.3032 C   0  0  0  0  0  0  0  0  0  0  0  0
   -0.9174   -8.3109    4.8438 C   0  0  2  0  0  0  0  0  0  0  0  0
   -0.7666   -6.9098    5.0922 O   0  0  0  0  0  0  0  0  0  0  0  0
    0.4844   -6.3273    4.8903 C   0  0  1  0  0  0  0  0  0  0  0  0
    0.3502   -4.9325    5.3028 N   0  0  0  0  0  0  0  0  0  0  0  0
   -0.2399   -4.4528    6.4086 C   0  0  0  0  0  0  0  0  0  0  0  0
   -0.2204   -3.1263    6.6169 N   0  0  0  0  0  0  0  0  0  0  0  0
    0.4806   -2.7125    5.4932 C   0  0  0  0  0  0  0  0  0  0  0  0
    0.9053   -1.4316    5.0594 C   0  0  0  0  0  0  0  0  0  0  0  0
    1.5640   -1.3493    3.8819 N   0  0  0  0  0  0  0  0  0  0  0  0
    1.8164   -2.4541    3.1763 C   0  0  0  0  0  0  0  0  0  0  0  0
    1.5065   -3.7196    3.4612 N   0  0  0  0  0  0  0  0  0  0  0  0
    0.8346   -3.8040    4.6510 C   0  0  0  0  0  0  0  0  0  0  0  0
    1.5774   -7.0706    5.7144 C   0  0  1  0  0  0  0  0  0  0  0  0
    1.4485   -6.8258    7.0964 O   0  0  0  0  0  0  0  0  0  0  0  0
    1.5249   -8.5944    5.4455 C   0  0  1  0  0  0  0  0  0  0  0  0
    2.4762   -9.3269    6.1921 O   0  0  0  0  0  0  0  0  0  0  0  0
    0.1123   -9.1575    5.6536 C   0  0  1  0  0  0  0  0  0  0  0  0
   -0.1937   -9.2090    7.0400 O   0  0  0  0  0  0  0  0  0  0  0  0
   -1.8081  -10.1591    3.5405 H   0  0  0  0  0  0  0  0  0  0  0  0
    0.1212   -8.7886    2.9265 H   0  0  0  0  0  0  0  0  0  0  0  0
   -1.1418   -7.5980    2.7866 H   0  0  0  0  0  0  0  0  0  0  0  0
   -1.9170   -8.5624    5.2058 H   0  0  0  0  0  0  0  0  0  0  0  0
    0.7255   -6.3335    3.8258 H   0  0  0  0  0  0  0  0  0  0  0  0
   -0.6911   -5.1120    7.1274 H   0  0  0  0  0  0  0  0  0  0  0  0
    0.7208   -0.5332    5.6189 H   0  0  0  0  0  0  0  0  0  0  0  0
    2.3309   -2.2726    2.2510 H   0  0  0  0  0  0  0  0  0  0  0  0
    2.5409   -6.6674    5.3802 H   0  0  0  0  0  0  0  0  0  0  0  0
    0.7414   -7.3962    7.3851 H   0  0  0  0  0  0  0  0  0  0  0  0
    1.8174   -8.7378    4.4154 H   0  0  0  0  0  0  0  0  0  0  0  0
    2.2641  -10.2545    6.1459 H   0  0  0  0  0  0  0  0  0  0  0  0
    0.0541  -10.1938    5.3096 H   0  0  0  0  0  0  0  0  0  0  0  0
    0.3999   -9.8208    7.4555 H   0  0  0  0  0  0  0  0  0  0  0  0
  1  2  1  0
  1 21  1  0
  2  3  1  0
  2 22  1  0
  2 23  1  0
  3 19  1  0
  3  4  1  0
  3 24  1  1
  4  5  1  0
  5  6  1  0
  5 15  1  0
  5 25  1  6
  6 14  1  0
  6  7  1  0
  7  8  2  0
  7 26  1  0
  8  9  1  0
  9 14  2  0
  9 10  1  0
 10 11  2  0
 10 27  1  0
 11 12  1  0
 12 13  2  0
 12 28  1  0
 13 14  1  0
 15 16  1  0
 15 17  1  0
 15 29  1  6
 16 30  1  0
 17 18  1  0
 17 19  1  0
 17 31  1  6
 18 32  1  0
 19 20  1  0
 19 33  1  6
 20 34  1  0
M  END
>  <i_m_ct_stereo_status>  (48) 
1

>  <s_m_source_file>  (48) 
/var/tmp/pbs.5076255.sched01/tmp6mkrr40i/0ze8ciewu.sdf

>  <i_m_source_file_index>  (48) 
24

>  <i_lp_mmshare_version>  (48) 
48012

>  <i_f3d_flags>  (48) 
0

>  <s_epik_input>  (48) 
W09IXVtDSDJdW0NAQEhdMU9bQ0BIXShbQ0BASF0oW09IXSlbQ0BASF0oW09IXSlbQ0BIXTFbT0hdKW4oW2NIXW4yKWMoYzIzKW5bY0hdbltjSF0z

>  <s_epik_cmdline>  (48) 
J2VwaWtfcHl0aG9uJywgJy1waHQnLCAnMi4wJywgJy1waCcsICc3LjAnLCAnLXRuJywgJzgnLCAnLW1hJywgJzIwMCcsICctaW1hZScsICc8aW5maWxlLm1hZT4nLCAnLW9tYWUnLCAnPG91dGZpbGUubWFlPic=

>  <r_lp_tautomer_probability>  (48) 
1

>  <r_epik_Ionization_Penalty>  (48) 
2.98462e-05

>  <r_epik_Ionization_Penalty_Charging>  (48) 
0

>  <r_epik_Ionization_Penalty_Neutral>  (48) 
2.98462e-05

>  <r_epik_State_Penalty>  (48) 
-0

>  <r_epik_Charging_Adjusted_Penalty>  (48) 
0

>  <i_epik_Tot_Q>  (48) 
0

>  <i_epik_Tot_abs_Q>  (48) 
0

>  <s_epik_Chemistry_Notes>  (48) 
This compound contains an acetal/aminal-like group ( X-CH(R)-Y where X, Y are N, S, or O) that may be acid/base labile, releasing an aldehyde.

>  <s_lp_Force_Field>  (48) 
OPLS3e

>  <r_lp_Energy>  (48) 
32.084

>  <b_lp_Chiralities_Consistent>  (48) 
1

>  <s_lp_Variant>  (48) 
17:0-1

>  <s_i_glide_gridfile>  (48) 
pfpi4k_grid

>  <i_i_glide_lignum>  (48) 
24

>  <i_i_glide_rotatable_bonds>  (48) 
6

>  <r_i_docking_score>  (48) 
-3.43521

>  <r_i_glide_ligand_efficiency>  (48) 
-0.17176

>  <r_i_glide_ligand_efficiency_sa>  (48) 
-0.466229

>  <r_i_glide_ligand_efficiency_ln>  (48) 
-0.859719

>  <r_i_glide_gscore>  (48) 
-3.43521

>  <r_i_glide_lipo>  (48) 
0

>  <r_i_glide_hbond>  (48) 
-0.16

>  <r_i_glide_metal>  (48) 
-0

>  <r_i_glide_rewards>  (48) 
-2.01032

>  <r_i_glide_evdw>  (48) 
-15.9612

>  <r_i_glide_ecoul>  (48) 
-5.96816

>  <r_i_glide_erotb>  (48) 
0.454159

>  <r_i_glide_esite>  (48) 
-0.0257579

>  <r_i_glide_emodel>  (48) 
-31.5491

>  <r_i_glide_energy>  (48) 
-21.9293

>  <r_i_glide_einternal>  (48) 
3.53979

>  <r_i_glide_intrahb_reward>  (48) 
-0.5

>  <i_i_glide_confnum>  (48) 
3

>  <i_i_glide_posenum>  (48) 
3

>  <r_i_glide_eff_state_penalty>  (48) 
0

>  <ligand_id>  (48) 
17

>  <original_smiles>  (48) 
OCC1OC(n2cnc3cncnc32)C(O)C(O)C1O

>  <smiles>  (48) 
[H]OC([H])([H])C1([H])OC([H])(n2c([H])nc3c([H])nc([H])nc32)C([H])(O[H])C([H])(O[H])C1([H])O[H]

$$$$
19:0:0
     RDKit          3D

 47 51  0  0  1  0  0  0  0  0999 V2000
    4.3668   -7.6672    2.0567 C   0  0  0  0  0  0  0  0  0  0  0  0
    3.7473   -6.2654    1.9395 C   0  0  2  0  0  0  0  0  0  0  0  0
    3.0047   -6.1483    0.6024 C   0  0  0  0  0  0  0  0  0  0  0  0
    2.2883   -4.8101    0.4540 C   0  0  0  0  0  0  0  0  0  0  0  0
    3.2177   -3.5841    0.6175 C   0  0  2  0  0  0  0  0  0  0  0  0
    4.0493   -3.3394   -0.6782 C   0  0  1  0  0  0  0  0  0  0  0  0
    3.1963   -3.0145   -1.9119 C   0  0  0  0  0  0  0  0  0  0  0  0
    4.1168   -2.1494   -2.7419 C   0  0  0  0  0  0  0  0  0  0  0  0
    3.9579   -1.9453   -3.9441 O   0  0  0  0  0  0  0  0  0  0  0  0
    5.1100   -1.7062   -1.9741 O   0  0  0  0  0  0  0  0  0  0  0  0
    5.0548   -2.1689   -0.6338 C   0  0  1  0  0  0  0  0  0  0  0  0
    4.6974   -0.9981    0.3182 C   0  0  0  0  0  0  0  0  0  0  0  0
    4.3968   -1.3571    1.6712 O   0  0  0  0  0  0  0  0  0  0  0  0
    4.9900   -2.5188    2.1665 C   0  0  1  0  0  0  0  0  0  0  0  0
    5.4172   -2.3694    3.4829 O   0  0  0  0  0  0  0  0  0  0  0  0
    4.7595   -3.1481    4.4607 C   0  0  2  0  0  0  0  0  0  0  0  0
    4.9663   -2.4159    5.7937 C   0  0  0  0  0  0  0  0  0  0  0  0
    5.3328   -4.5795    4.5376 C   0  0  0  0  0  0  0  0  0  0  0  0
    5.7625   -5.1811    3.1936 C   0  0  0  0  0  0  0  0  0  0  0  0
    4.7575   -5.0887    2.0371 C   0  0  2  0  0  0  0  0  0  0  0  0
    4.0030   -3.7237    1.9668 C   0  0  2  0  0  0  0  0  0  0  0  0
    2.9565   -3.7342    2.9494 O   0  0  0  0  0  0  0  0  0  0  0  0
    3.3603   -3.1285    4.2782 O   0  0  0  0  0  0  0  0  0  0  0  0
    5.2037   -7.7990    1.3702 H   0  0  0  0  0  0  0  0  0  0  0  0
    3.6270   -8.4378    1.8310 H   0  0  0  0  0  0  0  0  0  0  0  0
    4.7119   -7.8627    3.0719 H   0  0  0  0  0  0  0  0  0  0  0  0
    3.0135   -6.1785    2.7425 H   0  0  0  0  0  0  0  0  0  0  0  0
    3.6929   -6.2962   -0.2336 H   0  0  0  0  0  0  0  0  0  0  0  0
    2.2515   -6.9358    0.5448 H   0  0  0  0  0  0  0  0  0  0  0  0
    1.7742   -4.7811   -0.5056 H   0  0  0  0  0  0  0  0  0  0  0  0
    1.5253   -4.7886    1.2301 H   0  0  0  0  0  0  0  0  0  0  0  0
    2.5538   -2.7210    0.7164 H   0  0  0  0  0  0  0  0  0  0  0  0
    4.6169   -4.2434   -0.9058 H   0  0  0  0  0  0  0  0  0  0  0  0
    2.9127   -3.8911   -2.4843 H   0  0  0  0  0  0  0  0  0  0  0  0
    2.2924   -2.4507   -1.6685 H   0  0  0  0  0  0  0  0  0  0  0  0
    6.0458   -2.5520   -0.3916 H   0  0  0  0  0  0  0  0  0  0  0  0
    5.5200   -0.2844    0.3229 H   0  0  0  0  0  0  0  0  0  0  0  0
    3.8274   -0.4564   -0.0534 H   0  0  0  0  0  0  0  0  0  0  0  0
    5.9271   -2.6982    1.6500 H   0  0  0  0  0  0  0  0  0  0  0  0
    4.5181   -1.4221    5.7479 H   0  0  0  0  0  0  0  0  0  0  0  0
    6.0254   -2.2912    6.0313 H   0  0  0  0  0  0  0  0  0  0  0  0
    4.4976   -2.9557    6.6211 H   0  0  0  0  0  0  0  0  0  0  0  0
    6.2324   -4.5595    5.1578 H   0  0  0  0  0  0  0  0  0  0  0  0
    4.6391   -5.2411    5.0575 H   0  0  0  0  0  0  0  0  0  0  0  0
    6.6546   -4.6558    2.8635 H   0  0  0  0  0  0  0  0  0  0  0  0
    6.1190   -6.1956    3.3406 H   0  0  0  0  0  0  0  0  0  0  0  0
    5.3747   -5.1566    1.1410 H   0  0  0  0  0  0  0  0  0  0  0  0
  1  2  1  0
  1 24  1  0
  1 25  1  0
  1 26  1  0
  2 20  1  0
  2  3  1  0
  2 27  1  1
  3  4  1  0
  3 28  1  0
  3 29  1  0
  4  5  1  0
  4 30  1  0
  4 31  1  0
  5 21  1  0
  5  6  1  0
  5 32  1  1
  6 11  1  0
  6  7  1  0
  6 33  1  6
  7  8  1  0
  7 34  1  0
  7 35  1  0
  8  9  2  0
  8 10  1  0
 10 11  1  0
 11 12  1  0
 11 36  1  1
 12 13  1  0
 12 37  1  0
 12 38  1  0
 13 14  1  0
 14 21  1  0
 14 15  1  0
 14 39  1  6
 15 16  1  0
 16 23  1  0
 16 17  1  1
 16 18  1  0
 17 40  1  0
 17 41  1  0
 17 42  1  0
 18 19  1  0
 18 43  1  0
 18 44  1  0
 19 20  1  0
 19 45  1  0
 19 46  1  0
 20 21  1  0
 20 47  1  6
 21 22  1  1
 22 23  1  0
M  END
>  <i_m_ct_stereo_status>  (49) 
1

>  <s_m_source_file>  (49) 
/var/tmp/pbs.5076255.sched01/tmp6mkrr40i/0ze8ciewu.sdf

>  <i_m_source_file_index>  (49) 
26

>  <i_lp_mmshare_version>  (49) 
48012

>  <i_f3d_flags>  (49) 
0

>  <s_epik_input>  (49) 
W0NIMl0xW0NIMl1bQ0BASF0oW0NIM10pW0NAQEhdMltDSDJdW0NIMl1bQ0BdKFtDSDNdKShPTzMpT1tDQEBIXTRPW0NIMl1bQ0BASF0oW0NASF01W0NAQEhdMVtDQF0yMzQpT0MoPU8pW0NIMl01

>  <s_epik_cmdline>  (49) 
J2VwaWtfcHl0aG9uJywgJy1waHQnLCAnMi4wJywgJy1waCcsICc3LjAnLCAnLXRuJywgJzgnLCAnLW1hJywgJzIwMCcsICctaW1hZScsICc8aW5maWxlLm1hZT4nLCAnLW9tYWUnLCAnPG91dGZpbGUubWFlPic=

>  <r_lp_tautomer_probability>  (49) 
1

>  <r_epik_Ionization_Penalty>  (49) 
3.94675e-15

>  <r_epik_Ionization_Penalty_Charging>  (49) 
0

>  <r_epik_Ionization_Penalty_Neutral>  (49) 
3.94675e-15

>  <r_epik_State_Penalty>  (49) 
-0

>  <r_epik_Charging_Adjusted_Penalty>  (49) 
0

>  <i_epik_Tot_Q>  (49) 
0

>  <i_epik_Tot_abs_Q>  (49) 
0

>  <s_epik_Chemistry_Notes>  (49) 
This compound has an ester and may undergo hydrolysis at high or low pH. This compound contains an acetal/aminal-like group ( X-CH(R)-Y where X, Y are N, S, or O) that may be acid/base labile, releasing an aldehyde.

>  <s_lp_Force_Field>  (49) 
OPLS3e

>  <r_lp_Energy>  (49) 
41.1696

>  <b_lp_Chiralities_Consistent>  (49) 
1

>  <s_lp_Variant>  (49) 
19:0-1

>  <s_i_glide_gridfile>  (49) 
pfpi4k_grid

>  <i_i_glide_lignum>  (49) 
26

>  <i_i_glide_rotatable_bonds>  (49) 
0

>  <r_i_docking_score>  (49) 
-3.17676

>  <r_i_glide_ligand_efficiency>  (49) 
-0.13812

>  <r_i_glide_ligand_efficiency_sa>  (49) 
-0.392795

>  <r_i_glide_ligand_efficiency_ln>  (49) 
-0.768169

>  <r_i_glide_gscore>  (49) 
-3.17676

>  <r_i_glide_lipo>  (49) 
-0.179101

>  <r_i_glide_hbond>  (49) 
-0.139008

>  <r_i_glide_metal>  (49) 
-0

>  <r_i_glide_rewards>  (49) 
-1.41217

>  <r_i_glide_evdw>  (49) 
-21.6584

>  <r_i_glide_ecoul>  (49) 
-2.42374

>  <r_i_glide_erotb>  (49) 
0

>  <r_i_glide_esite>  (49) 
0

>  <r_i_glide_emodel>  (49) 
-29.0914

>  <r_i_glide_energy>  (49) 
-24.0821

>  <r_i_glide_einternal>  (49) 
0

>  <r_i_glide_intrahb_reward>  (49) 
-0

>  <i_i_glide_confnum>  (49) 
1

>  <i_i_glide_posenum>  (49) 
2

>  <r_i_glide_eff_state_penalty>  (49) 
0

>  <ligand_id>  (49) 
19

>  <original_smiles>  (49) 
CC1CCC2C3CC(=O)OC3COC3OC4(C)CCC1C32OO4

>  <smiles>  (49) 
[H]C([H])([H])C12OOC34C([H])(OC([H])([H])C5([H])OC(=O)C([H])([H])C5([H])C3([H])C([H])([H])C([H])([H])C([H])(C([H])([H])[H])C4([H])C([H])([H])C1([H])[H])O2

$$$$
19:0:1
     RDKit          3D

 47 51  0  0  1  0  0  0  0  0999 V2000
    1.6068   -4.8058    3.5148 C   0  0  0  0  0  0  0  0  0  0  0  0
    2.0770   -3.3675    3.7932 C   0  0  2  0  0  0  0  0  0  0  0  0
    1.1993   -2.7389    4.8952 C   0  0  0  0  0  0  0  0  0  0  0  0
    1.6826   -1.3331    5.2813 C   0  0  0  0  0  0  0  0  0  0  0  0
    1.7694   -0.3691    4.0714 C   0  0  2  0  0  0  0  0  0  0  0  0
    0.3578    0.1548    3.6664 C   0  0  1  0  0  0  0  0  0  0  0  0
   -0.3462    0.9443    4.7765 C   0  0  0  0  0  0  0  0  0  0  0  0
   -1.2127    1.9171    4.0109 C   0  0  0  0  0  0  0  0  0  0  0  0
   -2.1363    2.5456    4.5270 O   0  0  0  0  0  0  0  0  0  0  0  0
   -0.8145    1.9500    2.7457 O   0  0  0  0  0  0  0  0  0  0  0  0
    0.2956    1.1120    2.4579 C   0  0  1  0  0  0  0  0  0  0  0  0
    1.5695    1.9606    2.2063 C   0  0  0  0  0  0  0  0  0  0  0  0
    2.8009    1.2373    2.1317 O   0  0  0  0  0  0  0  0  0  0  0  0
    2.7344   -0.0839    1.6921 C   0  0  1  0  0  0  0  0  0  0  0  0
    3.7892   -0.4069    0.8381 O   0  0  0  0  0  0  0  0  0  0  0  0
    4.7122   -1.3704    1.2985 C   0  0  2  0  0  0  0  0  0  0  0  0
    5.9974   -1.1368    0.4976 C   0  0  0  0  0  0  0  0  0  0  0  0
    4.2118   -2.8137    1.0857 C   0  0  0  0  0  0  0  0  0  0  0  0
    2.7055   -3.0053    1.2693 C   0  0  0  0  0  0  0  0  0  0  0  0
    2.0776   -2.4248    2.5511 C   0  0  2  0  0  0  0  0  0  0  0  0
    2.6415   -1.0272    2.9429 C   0  0  2  0  0  0  0  0  0  0  0  0
    3.9146   -1.2136    3.5800 O   0  0  0  0  0  0  0  0  0  0  0  0
    5.0914   -1.1116    2.6306 O   0  0  0  0  0  0  0  0  0  0  0  0
    0.6452   -4.8246    3.0027 H   0  0  0  0  0  0  0  0  0  0  0  0
    1.5005   -5.3635    4.4470 H   0  0  0  0  0  0  0  0  0  0  0  0
    2.3361   -5.3502    2.9125 H   0  0  0  0  0  0  0  0  0  0  0  0
    3.0940   -3.4459    4.1843 H   0  0  0  0  0  0  0  0  0  0  0  0
    0.1588   -2.7040    4.5651 H   0  0  0  0  0  0  0  0  0  0  0  0
    1.2133   -3.3758    5.7865 H   0  0  0  0  0  0  0  0  0  0  0  0
    1.0309   -0.9300    6.0550 H   0  0  0  0  0  0  0  0  0  0  0  0
    2.6655   -1.4289    5.7425 H   0  0  0  0  0  0  0  0  0  0  0  0
    2.3245    0.5002    4.4346 H   0  0  0  0  0  0  0  0  0  0  0  0
   -0.2778   -0.6973    3.4264 H   0  0  0  0  0  0  0  0  0  0  0  0
   -0.9567    0.3113    5.4170 H   0  0  0  0  0  0  0  0  0  0  0  0
    0.3501    1.5171    5.3940 H   0  0  0  0  0  0  0  0  0  0  0  0
    0.0412    0.5563    1.5548 H   0  0  0  0  0  0  0  0  0  0  0  0
    1.4447    2.5250    1.2840 H   0  0  0  0  0  0  0  0  0  0  0  0
    1.6970    2.7043    2.9911 H   0  0  0  0  0  0  0  0  0  0  0  0
    1.8728   -0.2058    1.0415 H   0  0  0  0  0  0  0  0  0  0  0  0
    6.3663   -0.1271    0.6810 H   0  0  0  0  0  0  0  0  0  0  0  0
    5.8302   -1.2366   -0.5772 H   0  0  0  0  0  0  0  0  0  0  0  0
    6.7833   -1.8412    0.7903 H   0  0  0  0  0  0  0  0  0  0  0  0
    4.4217   -3.1063    0.0549 H   0  0  0  0  0  0  0  0  0  0  0  0
    4.7750   -3.5079    1.7075 H   0  0  0  0  0  0  0  0  0  0  0  0
    2.2217   -2.5171    0.4202 H   0  0  0  0  0  0  0  0  0  0  0  0
    2.4508   -4.0539    1.1398 H   0  0  0  0  0  0  0  0  0  0  0  0
    1.0296   -2.2723    2.2974 H   0  0  0  0  0  0  0  0  0  0  0  0
  1  2  1  0
  1 24  1  0
  1 25  1  0
  1 26  1  0
  2 20  1  0
  2  3  1  0
  2 27  1  1
  3  4  1  0
  3 28  1  0
  3 29  1  0
  4  5  1  0
  4 30  1  0
  4 31  1  0
  5 21  1  0
  5  6  1  0
  5 32  1  1
  6 11  1  0
  6  7  1  0
  6 33  1  6
  7  8  1  0
  7 34  1  0
  7 35  1  0
  8  9  2  0
  8 10  1  0
 10 11  1  0
 11 12  1  0
 11 36  1  6
 12 13  1  0
 12 37  1  0
 12 38  1  0
 13 14  1  0
 14 21  1  0
 14 15  1  0
 14 39  1  6
 15 16  1  0
 16 23  1  0
 16 17  1  6
 16 18  1  0
 17 40  1  0
 17 41  1  0
 17 42  1  0
 18 19  1  0
 18 43  1  0
 18 44  1  0
 19 20  1  0
 19 45  1  0
 19 46  1  0
 20 21  1  0
 20 47  1  6
 21 22  1  1
 22 23  1  0
M  END
>  <i_m_ct_stereo_status>  (50) 
1

>  <s_m_source_file>  (50) 
/var/tmp/pbs.5076255.sched01/tmp6mkrr40i/0ze8ciewu.sdf

>  <i_m_source_file_index>  (50) 
26

>  <i_lp_mmshare_version>  (50) 
48012

>  <i_f3d_flags>  (50) 
0

>  <s_epik_input>  (50) 
W0NIMl0xW0NIMl1bQ0BASF0oW0NIM10pW0NAQEhdMltDSDJdW0NIMl1bQ0BdKFtDSDNdKShPTzMpT1tDQEBIXTRPW0NIMl1bQ0BASF0oW0NASF01W0NAQEhdMVtDQF0yMzQpT0MoPU8pW0NIMl01

>  <s_epik_cmdline>  (50) 
J2VwaWtfcHl0aG9uJywgJy1waHQnLCAnMi4wJywgJy1waCcsICc3LjAnLCAnLXRuJywgJzgnLCAnLW1hJywgJzIwMCcsICctaW1hZScsICc8aW5maWxlLm1hZT4nLCAnLW9tYWUnLCAnPG91dGZpbGUubWFlPic=

>  <r_lp_tautomer_probability>  (50) 
1

>  <r_epik_Ionization_Penalty>  (50) 
3.94675e-15

>  <r_epik_Ionization_Penalty_Charging>  (50) 
0

>  <r_epik_Ionization_Penalty_Neutral>  (50) 
3.94675e-15

>  <r_epik_State_Penalty>  (50) 
-0

>  <r_epik_Charging_Adjusted_Penalty>  (50) 
0

>  <i_epik_Tot_Q>  (50) 
0

>  <i_epik_Tot_abs_Q>  (50) 
0

>  <s_epik_Chemistry_Notes>  (50) 
This compound has an ester and may undergo hydrolysis at high or low pH. This compound contains an acetal/aminal-like group ( X-CH(R)-Y where X, Y are N, S, or O) that may be acid/base labile, releasing an aldehyde.

>  <s_lp_Force_Field>  (50) 
OPLS3e

>  <r_lp_Energy>  (50) 
41.1696

>  <b_lp_Chiralities_Consistent>  (50) 
1

>  <s_lp_Variant>  (50) 
19:0-1

>  <s_i_glide_gridfile>  (50) 
pfpi4k_grid

>  <i_i_glide_lignum>  (50) 
26

>  <i_i_glide_rotatable_bonds>  (50) 
0

>  <r_i_docking_score>  (50) 
-2.9689

>  <r_i_glide_ligand_efficiency>  (50) 
-0.129083

>  <r_i_glide_ligand_efficiency_sa>  (50) 
-0.367094

>  <r_i_glide_ligand_efficiency_ln>  (50) 
-0.717907

>  <r_i_glide_gscore>  (50) 
-2.9689

>  <r_i_glide_lipo>  (50) 
-0.12855

>  <r_i_glide_hbond>  (50) 
0

>  <r_i_glide_metal>  (50) 
-0

>  <r_i_glide_rewards>  (50) 
-1.25207

>  <r_i_glide_evdw>  (50) 
-24.2898

>  <r_i_glide_ecoul>  (50) 
-2.12013

>  <r_i_glide_erotb>  (50) 
0

>  <r_i_glide_esite>  (50) 
-0.0557635

>  <r_i_glide_emodel>  (50) 
-31.0641

>  <r_i_glide_energy>  (50) 
-26.41

>  <r_i_glide_einternal>  (50) 
0

>  <r_i_glide_intrahb_reward>  (50) 
-0

>  <i_i_glide_confnum>  (50) 
2

>  <i_i_glide_posenum>  (50) 
21

>  <r_i_glide_eff_state_penalty>  (50) 
0

>  <ligand_id>  (50) 
19

>  <original_smiles>  (50) 
CC1CCC2C3CC(=O)OC3COC3OC4(C)CCC1C32OO4

>  <smiles>  (50) 
[H]C([H])([H])C12OOC34C([H])(OC([H])([H])C5([H])OC(=O)C([H])([H])C5([H])C3([H])C([H])([H])C([H])([H])C([H])(C([H])([H])[H])C4([H])C([H])([H])C1([H])[H])O2

$$$$
19:0:2
     RDKit          3D

 47 51  0  0  1  0  0  0  0  0999 V2000
    4.7331   -0.6523    3.6458 C   0  0  0  0  0  0  0  0  0  0  0  0
    3.2105   -0.8230    3.4842 C   0  0  2  0  0  0  0  0  0  0  0  0
    2.6695    0.2384    2.5043 C   0  0  0  0  0  0  0  0  0  0  0  0
    1.1672    0.0605    2.2372 C   0  0  0  0  0  0  0  0  0  0  0  0
    0.3122    0.0646    3.5322 C   0  0  2  0  0  0  0  0  0  0  0  0
    0.1097    1.5067    4.0705 C   0  0  1  0  0  0  0  0  0  0  0  0
   -0.6316    2.4224    3.0960 C   0  0  0  0  0  0  0  0  0  0  0  0
   -1.3472    3.3940    4.0100 C   0  0  0  0  0  0  0  0  0  0  0  0
   -1.8038    4.4758    3.6358 O   0  0  0  0  0  0  0  0  0  0  0  0
   -1.3594    2.8989    5.2401 O   0  0  0  0  0  0  0  0  0  0  0  0
   -0.7107    1.6469    5.3678 C   0  0  1  0  0  0  0  0  0  0  0  0
   -1.7602    0.5383    5.6251 C   0  0  0  0  0  0  0  0  0  0  0  0
   -1.2958   -0.8126    5.5898 O   0  0  0  0  0  0  0  0  0  0  0  0
    0.0581   -1.0189    5.8699 C   0  0  1  0  0  0  0  0  0  0  0  0
    0.2539   -2.1727    6.6263 O   0  0  0  0  0  0  0  0  0  0  0  0
    0.9657   -3.2248    6.0086 C   0  0  2  0  0  0  0  0  0  0  0  0
    0.5496   -4.5076    6.7425 C   0  0  0  0  0  0  0  0  0  0  0  0
    2.4924   -3.0193    6.1066 C   0  0  0  0  0  0  0  0  0  0  0  0
    2.9550   -1.5629    5.9955 C   0  0  0  0  0  0  0  0  0  0  0  0
    2.3974   -0.7433    4.8131 C   0  0  2  0  0  0  0  0  0  0  0  0
    0.8869   -1.0044    4.5322 C   0  0  2  0  0  0  0  0  0  0  0  0
    0.7575   -2.2317    3.8052 O   0  0  0  0  0  0  0  0  0  0  0  0
    0.5192   -3.4422    4.6901 O   0  0  0  0  0  0  0  0  0  0  0  0
    4.9812    0.2460    4.2125 H   0  0  0  0  0  0  0  0  0  0  0  0
    5.2167   -0.5780    2.6729 H   0  0  0  0  0  0  0  0  0  0  0  0
    5.1766   -1.5145    4.1463 H   0  0  0  0  0  0  0  0  0  0  0  0
    3.0556   -1.8039    3.0287 H   0  0  0  0  0  0  0  0  0  0  0  0
    2.8672    1.2401    2.8932 H   0  0  0  0  0  0  0  0  0  0  0  0
    3.2069    0.1760    1.5523 H   0  0  0  0  0  0  0  0  0  0  0  0
    0.8324    0.8317    1.5430 H   0  0  0  0  0  0  0  0  0  0  0  0
    1.0299   -0.8825    1.7088 H   0  0  0  0  0  0  0  0  0  0  0  0
   -0.6786   -0.2777    3.2303 H   0  0  0  0  0  0  0  0  0  0  0  0
    1.0840    1.9590    4.2516 H   0  0  0  0  0  0  0  0  0  0  0  0
    0.0647    2.9431    2.4462 H   0  0  0  0  0  0  0  0  0  0  0  0
   -1.3724    1.9003    2.4816 H   0  0  0  0  0  0  0  0  0  0  0  0
   -0.0311    1.7340    6.2184 H   0  0  0  0  0  0  0  0  0  0  0  0
   -2.2217    0.7177    6.5941 H   0  0  0  0  0  0  0  0  0  0  0  0
   -2.5605    0.5946    4.8907 H   0  0  0  0  0  0  0  0  0  0  0  0
    0.4131   -0.2454    6.5460 H   0  0  0  0  0  0  0  0  0  0  0  0
   -0.5241   -4.6759    6.6280 H   0  0  0  0  0  0  0  0  0  0  0  0
    0.7647   -4.4539    7.8123 H   0  0  0  0  0  0  0  0  0  0  0  0
    1.0691   -5.3821    6.3373 H   0  0  0  0  0  0  0  0  0  0  0  0
    2.8261   -3.3643    7.0868 H   0  0  0  0  0  0  0  0  0  0  0  0
    3.0048   -3.6498    5.3831 H   0  0  0  0  0  0  0  0  0  0  0  0
    2.6543   -1.0540    6.9138 H   0  0  0  0  0  0  0  0  0  0  0  0
    4.0401   -1.5207    6.0293 H   0  0  0  0  0  0  0  0  0  0  0  0
    2.4882    0.2907    5.1432 H   0  0  0  0  0  0  0  0  0  0  0  0
  1  2  1  0
  1 24  1  0
  1 25  1  0
  1 26  1  0
  2 20  1  0
  2  3  1  0
  2 27  1  6
  3  4  1  0
  3 28  1  0
  3 29  1  0
  4  5  1  0
  4 30  1  0
  4 31  1  0
  5 21  1  0
  5  6  1  0
  5 32  1  6
  6 11  1  0
  6  7  1  0
  6 33  1  1
  7  8  1  0
  7 34  1  0
  7 35  1  0
  8  9  2  0
  8 10  1  0
 10 11  1  0
 11 12  1  0
 11 36  1  1
 12 13  1  0
 12 37  1  0
 12 38  1  0
 13 14  1  0
 14 21  1  0
 14 15  1  0
 14 39  1  1
 15 16  1  0
 16 23  1  0
 16 17  1  1
 16 18  1  0
 17 40  1  0
 17 41  1  0
 17 42  1  0
 18 19  1  0
 18 43  1  0
 18 44  1  0
 19 20  1  0
 19 45  1  0
 19 46  1  0
 20 21  1  0
 20 47  1  1
 21 22  1  6
 22 23  1  0
M  END
>  <i_m_ct_stereo_status>  (51) 
1

>  <s_m_source_file>  (51) 
/var/tmp/pbs.5076255.sched01/tmp6mkrr40i/0ze8ciewu.sdf

>  <i_m_source_file_index>  (51) 
26

>  <i_lp_mmshare_version>  (51) 
48012

>  <i_f3d_flags>  (51) 
0

>  <s_epik_input>  (51) 
W0NIMl0xW0NIMl1bQ0BASF0oW0NIM10pW0NAQEhdMltDSDJdW0NIMl1bQ0BdKFtDSDNdKShPTzMpT1tDQEBIXTRPW0NIMl1bQ0BASF0oW0NASF01W0NAQEhdMVtDQF0yMzQpT0MoPU8pW0NIMl01

>  <s_epik_cmdline>  (51) 
J2VwaWtfcHl0aG9uJywgJy1waHQnLCAnMi4wJywgJy1waCcsICc3LjAnLCAnLXRuJywgJzgnLCAnLW1hJywgJzIwMCcsICctaW1hZScsICc8aW5maWxlLm1hZT4nLCAnLW9tYWUnLCAnPG91dGZpbGUubWFlPic=

>  <r_lp_tautomer_probability>  (51) 
1

>  <r_epik_Ionization_Penalty>  (51) 
3.94675e-15

>  <r_epik_Ionization_Penalty_Charging>  (51) 
0

>  <r_epik_Ionization_Penalty_Neutral>  (51) 
3.94675e-15

>  <r_epik_State_Penalty>  (51) 
-0

>  <r_epik_Charging_Adjusted_Penalty>  (51) 
0

>  <i_epik_Tot_Q>  (51) 
0

>  <i_epik_Tot_abs_Q>  (51) 
0

>  <s_epik_Chemistry_Notes>  (51) 
This compound has an ester and may undergo hydrolysis at high or low pH. This compound contains an acetal/aminal-like group ( X-CH(R)-Y where X, Y are N, S, or O) that may be acid/base labile, releasing an aldehyde.

>  <s_lp_Force_Field>  (51) 
OPLS3e

>  <r_lp_Energy>  (51) 
41.1696

>  <b_lp_Chiralities_Consistent>  (51) 
1

>  <s_lp_Variant>  (51) 
19:0-1

>  <s_i_glide_gridfile>  (51) 
pfpi4k_grid

>  <i_i_glide_lignum>  (51) 
26

>  <i_i_glide_rotatable_bonds>  (51) 
0

>  <r_i_docking_score>  (51) 
-2.95868

>  <r_i_glide_ligand_efficiency>  (51) 
-0.128638

>  <r_i_glide_ligand_efficiency_sa>  (51) 
-0.365831

>  <r_i_glide_ligand_efficiency_ln>  (51) 
-0.715437

>  <r_i_glide_gscore>  (51) 
-2.95868

>  <r_i_glide_lipo>  (51) 
-0.0805707

>  <r_i_glide_hbond>  (51) 
-0.16

>  <r_i_glide_metal>  (51) 
-0

>  <r_i_glide_rewards>  (51) 
-1.19749

>  <r_i_glide_evdw>  (51) 
-20.9484

>  <r_i_glide_ecoul>  (51) 
-2.64878

>  <r_i_glide_erotb>  (51) 
0

>  <r_i_glide_esite>  (51) 
-0.0758919

>  <r_i_glide_emodel>  (51) 
-28.1168

>  <r_i_glide_energy>  (51) 
-23.5972

>  <r_i_glide_einternal>  (51) 
0

>  <r_i_glide_intrahb_reward>  (51) 
-0

>  <i_i_glide_confnum>  (51) 
2

>  <i_i_glide_posenum>  (51) 
24

>  <r_i_glide_eff_state_penalty>  (51) 
0

>  <ligand_id>  (51) 
19

>  <original_smiles>  (51) 
CC1CCC2C3CC(=O)OC3COC3OC4(C)CCC1C32OO4

>  <smiles>  (51) 
[H]C([H])([H])C12OOC34C([H])(OC([H])([H])C5([H])OC(=O)C([H])([H])C5([H])C3([H])C([H])([H])C([H])([H])C([H])(C([H])([H])[H])C4([H])C([H])([H])C1([H])[H])O2

$$$$
20:0:0
     RDKit          3D

 54 57  0  0  1  0  0  0  0  0999 V2000
    7.9875   -3.8289    0.0818 C   0  0  0  0  0  0  0  0  0  0  0  0
    6.6607   -3.9742    0.8540 C   0  0  2  0  0  0  0  0  0  0  0  0
    5.9847   -5.3308    0.5486 C   0  0  0  0  0  0  0  0  0  0  0  0
    4.6807   -5.6194    1.3312 C   0  0  2  0  0  0  0  0  0  0  0  0
    4.5813   -7.0374    1.3980 O   0  0  0  0  0  0  0  0  0  0  0  0
    3.4177   -5.1338    0.6007 C   0  0  0  0  0  0  0  0  0  0  0  0
    3.4351   -3.6212    0.2661 C   0  0  2  0  0  0  0  0  0  0  0  0
    3.8223   -3.4517   -1.2409 C   0  0  1  0  0  0  0  0  0  0  0  0
    2.5939   -3.1392   -2.1289 C   0  0  0  0  0  0  0  0  0  0  0  0
    4.9768   -2.5068   -1.5847 C   0  0  0  0  0  0  0  0  0  0  0  0
    5.1011   -2.0599   -2.7223 O   0  0  0  0  0  0  0  0  0  0  0  0
    5.8300   -2.1925   -0.5902 O   0  0  0  0  0  0  0  0  0  0  0  0
    5.7496   -2.7240    0.7325 C   0  0  1  0  0  0  0  0  0  0  0  0
    4.2849   -2.7936    1.2978 C   0  0  1  0  0  0  0  0  0  0  0  0
    3.7965   -1.2910    1.4098 C   0  0  1  0  0  0  0  0  0  0  0  0
    3.4150   -0.6857    0.1905 O   0  0  0  0  0  0  0  0  0  0  0  0
    2.6419   -0.9939    2.3602 C   0  0  0  0  0  0  0  0  0  0  0  0
    2.9649   -1.5269    3.7429 C   0  0  0  0  0  0  0  0  0  0  0  0
    3.1315   -3.0584    3.7521 C   0  0  0  0  0  0  0  0  0  0  0  0
    3.4847   -3.3832    5.2312 C   0  0  0  0  0  0  0  0  0  0  0  0
    1.7603   -3.6977    3.4128 C   0  0  0  0  0  0  0  0  0  0  0  0
    4.3019   -3.4670    2.7565 C   0  0  1  0  0  0  0  0  0  0  0  0
    4.6995   -5.0003    2.7490 C   0  0  1  0  0  0  0  0  0  0  0  0
    3.9393   -5.8233    3.6127 O   0  0  0  0  0  0  0  0  0  0  0  0
    7.8338   -3.8481   -0.9993 H   0  0  0  0  0  0  0  0  0  0  0  0
    8.6712   -4.6420    0.3291 H   0  0  0  0  0  0  0  0  0  0  0  0
    8.4870   -2.8911    0.3321 H   0  0  0  0  0  0  0  0  0  0  0  0
    6.9873   -4.0056    1.8899 H   0  0  0  0  0  0  0  0  0  0  0  0
    5.8085   -5.4579   -0.5190 H   0  0  0  0  0  0  0  0  0  0  0  0
    6.7190   -6.0946    0.8104 H   0  0  0  0  0  0  0  0  0  0  0  0
    5.3624   -7.3761    1.8073 H   0  0  0  0  0  0  0  0  0  0  0  0
    3.2563   -5.7287   -0.3004 H   0  0  0  0  0  0  0  0  0  0  0  0
    2.5497   -5.3543    1.2263 H   0  0  0  0  0  0  0  0  0  0  0  0
    2.4043   -3.2836    0.3549 H   0  0  0  0  0  0  0  0  0  0  0  0
    4.2096   -4.3996   -1.6024 H   0  0  0  0  0  0  0  0  0  0  0  0
    2.8275   -3.2570   -3.1908 H   0  0  0  0  0  0  0  0  0  0  0  0
    2.2273   -2.1199   -1.9902 H   0  0  0  0  0  0  0  0  0  0  0  0
    1.7723   -3.8233   -1.9146 H   0  0  0  0  0  0  0  0  0  0  0  0
    6.2661   -1.9810    1.3464 H   0  0  0  0  0  0  0  0  0  0  0  0
    4.6356   -0.7008    1.7778 H   0  0  0  0  0  0  0  0  0  0  0  0
    2.5153   -0.9238   -0.0311 H   0  0  0  0  0  0  0  0  0  0  0  0
    2.5033    0.0866    2.4342 H   0  0  0  0  0  0  0  0  0  0  0  0
    1.6966   -1.3858    1.9886 H   0  0  0  0  0  0  0  0  0  0  0  0
    3.8843   -1.0574    4.0984 H   0  0  0  0  0  0  0  0  0  0  0  0
    2.1833   -1.2141    4.4416 H   0  0  0  0  0  0  0  0  0  0  0  0
    3.3611   -4.4349    5.4895 H   0  0  0  0  0  0  0  0  0  0  0  0
    2.8399   -2.8376    5.9253 H   0  0  0  0  0  0  0  0  0  0  0  0
    4.5128   -3.1024    5.4645 H   0  0  0  0  0  0  0  0  0  0  0  0
    1.7332   -4.7732    3.5816 H   0  0  0  0  0  0  0  0  0  0  0  0
    1.4877   -3.5387    2.3741 H   0  0  0  0  0  0  0  0  0  0  0  0
    0.9598   -3.2679    4.0203 H   0  0  0  0  0  0  0  0  0  0  0  0
    5.1658   -2.9954    3.2261 H   0  0  0  0  0  0  0  0  0  0  0  0
    5.7033   -5.1036    3.1614 H   0  0  0  0  0  0  0  0  0  0  0  0
    4.3045   -6.6920    3.5814 H   0  0  0  0  0  0  0  0  0  0  0  0
  1  2  1  0
  1 25  1  0
  1 26  1  0
  1 27  1  0
  2 13  1  0
  2  3  1  0
  2 28  1  1
  3  4  1  0
  3 29  1  0
  3 30  1  0
  4 23  1  0
  4  5  1  1
  4  6  1  0
  5 31  1  0
  6  7  1  0
  6 32  1  0
  6 33  1  0
  7 14  1  0
  7  8  1  0
  7 34  1  6
  8  9  1  0
  8 10  1  0
  8 35  1  6
  9 36  1  0
  9 37  1  0
  9 38  1  0
 10 11  2  0
 10 12  1  0
 12 13  1  0
 13 14  1  0
 13 39  1  1
 14 22  1  0
 14 15  1  1
 15 16  1  0
 15 17  1  0
 15 40  1  1
 16 41  1  0
 17 18  1  0
 17 42  1  0
 17 43  1  0
 18 19  1  0
 18 44  1  0
 18 45  1  0
 19 20  1  0
 19 21  1  0
 19 22  1  0
 20 46  1  0
 20 47  1  0
 20 48  1  0
 21 49  1  0
 21 50  1  0
 21 51  1  0
 22 23  1  0
 22 52  1  1
 23 24  1  0
 23 53  1  1
 24 54  1  0
M  END
>  <i_m_ct_stereo_status>  (52) 
1

>  <s_m_source_file>  (52) 
/var/tmp/pbs.5076255.sched01/tmp6mkrr40i/0ze8ciewu.sdf

>  <i_m_source_file_index>  (52) 
27

>  <i_lp_mmshare_version>  (52) 
48012

>  <i_f3d_flags>  (52) 
0

>  <s_epik_input>  (52) 
W0NIM11bQ0BIXTFDKD1PKU9bQ0BASF0yW0NASF0oW0NIM10pW0NIMl1bQ0BdKFtPSF0pKFtDSDJdW0NASF0xW0NAQF0yMzQpW0NASF0oW09IXSlbQ0BASF00QyhbQ0gzXSkoW0NIM10pW0NIMl1bQ0gyXVtDQEBIXTNbT0hd

>  <s_epik_cmdline>  (52) 
J2VwaWtfcHl0aG9uJywgJy1waHQnLCAnMi4wJywgJy1waCcsICc3LjAnLCAnLXRuJywgJzgnLCAnLW1hJywgJzIwMCcsICctaW1hZScsICc8aW5maWxlLm1hZT4nLCAnLW9tYWUnLCAnPG91dGZpbGUubWFlPic=

>  <r_lp_tautomer_probability>  (52) 
1

>  <r_epik_Ionization_Penalty>  (52) 
7.33599e-07

>  <r_epik_Ionization_Penalty_Charging>  (52) 
0

>  <r_epik_Ionization_Penalty_Neutral>  (52) 
7.33599e-07

>  <r_epik_State_Penalty>  (52) 
-0

>  <r_epik_Charging_Adjusted_Penalty>  (52) 
0

>  <i_epik_Tot_Q>  (52) 
0

>  <i_epik_Tot_abs_Q>  (52) 
0

>  <s_epik_Chemistry_Notes>  (52) 
This compound has an ester and may undergo hydrolysis at high or low pH.

>  <s_lp_Force_Field>  (52) 
OPLS3e

>  <r_lp_Energy>  (52) 
66.2721

>  <b_lp_Chiralities_Consistent>  (52) 
1

>  <s_lp_Variant>  (52) 
20:0-1

>  <s_i_glide_gridfile>  (52) 
pfpi4k_grid

>  <i_i_glide_lignum>  (52) 
27

>  <i_i_glide_rotatable_bonds>  (52) 
3

>  <r_i_docking_score>  (52) 
-3.62575

>  <r_i_glide_ligand_efficiency>  (52) 
-0.151073

>  <r_i_glide_ligand_efficiency_sa>  (52) 
-0.43577

>  <r_i_glide_ligand_efficiency_ln>  (52) 
-0.867809

>  <r_i_glide_gscore>  (52) 
-3.62575

>  <r_i_glide_lipo>  (52) 
-0.599109

>  <r_i_glide_hbond>  (52) 
0

>  <r_i_glide_metal>  (52) 
-0

>  <r_i_glide_rewards>  (52) 
-1.10156

>  <r_i_glide_evdw>  (52) 
-24.6259

>  <r_i_glide_ecoul>  (52) 
-4.51975

>  <r_i_glide_erotb>  (52) 
0

>  <r_i_glide_esite>  (52) 
-0.01583

>  <r_i_glide_emodel>  (52) 
-35.6588

>  <r_i_glide_energy>  (52) 
-29.1457

>  <r_i_glide_einternal>  (52) 
0.580847

>  <r_i_glide_intrahb_reward>  (52) 
-0

>  <i_i_glide_confnum>  (52) 
2

>  <i_i_glide_posenum>  (52) 
30

>  <r_i_glide_eff_state_penalty>  (52) 
0

>  <ligand_id>  (52) 
20

>  <original_smiles>  (52) 
CC1CC2(O)CC3C(C)C(=O)OC1C31C(O)CCC(C)(C)C1C2O

>  <smiles>  (52) 
[H]OC1([H])C2([H])C(C([H])([H])[H])(C([H])([H])[H])C([H])([H])C([H])([H])C([H])(O[H])C23C2([H])OC(=O)C([H])(C([H])([H])[H])C3([H])C([H])([H])C1(O[H])C([H])([H])C2([H])C([H])([H])[H]

$$$$
20:0:1
     RDKit          3D

 54 57  0  0  1  0  0  0  0  0999 V2000
    7.4275   -5.4054    1.1497 C   0  0  0  0  0  0  0  0  0  0  0  0
    6.0673   -4.7819    1.5239 C   0  0  2  0  0  0  0  0  0  0  0  0
    4.9145   -5.7543    1.1944 C   0  0  0  0  0  0  0  0  0  0  0  0
    3.5047   -5.2571    1.6022 C   0  0  2  0  0  0  0  0  0  0  0  0
    2.7230   -6.4347    1.8020 O   0  0  0  0  0  0  0  0  0  0  0  0
    2.7955   -4.4588    0.4940 C   0  0  0  0  0  0  0  0  0  0  0  0
    3.5787   -3.2164    0.0049 C   0  0  2  0  0  0  0  0  0  0  0  0
    4.2840   -3.5931   -1.3350 C   0  0  1  0  0  0  0  0  0  0  0  0
    3.5396   -3.0105   -2.5590 C   0  0  0  0  0  0  0  0  0  0  0  0
    5.7880   -3.3227   -1.4467 C   0  0  0  0  0  0  0  0  0  0  0  0
    6.3264   -3.2112   -2.5458 O   0  0  0  0  0  0  0  0  0  0  0  0
    6.4782   -3.2074   -0.2915 O   0  0  0  0  0  0  0  0  0  0  0  0
    5.8990   -3.3280    1.0042 C   0  0  1  0  0  0  0  0  0  0  0  0
    4.5046   -2.6214    1.1313 C   0  0  1  0  0  0  0  0  0  0  0  0
    4.7828   -1.0717    0.9259 C   0  0  1  0  0  0  0  0  0  0  0  0
    4.9704   -0.6579   -0.4160 O   0  0  0  0  0  0  0  0  0  0  0  0
    3.7298   -0.1158    1.4569 C   0  0  0  0  0  0  0  0  0  0  0  0
    3.4878   -0.3839    2.9263 C   0  0  0  0  0  0  0  0  0  0  0  0
    2.9086   -1.7890    3.1691 C   0  0  0  0  0  0  0  0  0  0  0  0
    2.7598   -1.8779    4.7135 C   0  0  0  0  0  0  0  0  0  0  0  0
    1.4941   -1.8362    2.5412 C   0  0  0  0  0  0  0  0  0  0  0  0
    3.9187   -2.8790    2.6051 C   0  0  1  0  0  0  0  0  0  0  0  0
    3.5268   -4.3915    2.8852 C   0  0  1  0  0  0  0  0  0  0  0  0
    2.3110   -4.5786    3.5848 O   0  0  0  0  0  0  0  0  0  0  0  0
    7.4916   -5.6081    0.0920 H   0  0  0  0  0  0  0  0  0  0  0  0
    7.5837   -6.3519    1.6739 H   0  0  0  0  0  0  0  0  0  0  0  0
    8.2473   -4.7353    1.4167 H   0  0  0  0  0  0  0  0  0  0  0  0
    6.1300   -4.7143    2.6044 H   0  0  0  0  0  0  0  0  0  0  0  0
    4.9258   -6.0518    0.1457 H   0  0  0  0  0  0  0  0  0  0  0  0
    5.1205   -6.6708    1.7429 H   0  0  0  0  0  0  0  0  0  0  0  0
    3.1987   -7.0089    2.3805 H   0  0  0  0  0  0  0  0  0  0  0  0
    2.5521   -5.1315   -0.3290 H   0  0  0  0  0  0  0  0  0  0  0  0
    1.8264   -4.1369    0.8763 H   0  0  0  0  0  0  0  0  0  0  0  0
    2.8350   -2.4618   -0.2304 H   0  0  0  0  0  0  0  0  0  0  0  0
    4.2379   -4.6704   -1.4579 H   0  0  0  0  0  0  0  0  0  0  0  0
    3.9100   -3.4599   -3.4834 H   0  0  0  0  0  0  0  0  0  0  0  0
    3.6779   -1.9260   -2.6449 H   0  0  0  0  0  0  0  0  0  0  0  0
    2.4728   -3.2176   -2.5090 H   0  0  0  0  0  0  0  0  0  0  0  0
    6.5783   -2.7630    1.6510 H   0  0  0  0  0  0  0  0  0  0  0  0
    5.7069   -0.8252    1.4467 H   0  0  0  0  0  0  0  0  0  0  0  0
    5.0134    0.2951   -0.4530 H   0  0  0  0  0  0  0  0  0  0  0  0
    4.0873    0.9106    1.3540 H   0  0  0  0  0  0  0  0  0  0  0  0
    2.8111   -0.1634    0.8770 H   0  0  0  0  0  0  0  0  0  0  0  0
    4.4278   -0.2781    3.4763 H   0  0  0  0  0  0  0  0  0  0  0  0
    2.8200    0.3882    3.3287 H   0  0  0  0  0  0  0  0  0  0  0  0
    2.1017   -2.6867    5.0403 H   0  0  0  0  0  0  0  0  0  0  0  0
    2.3173   -0.9641    5.1233 H   0  0  0  0  0  0  0  0  0  0  0  0
    3.7280   -2.0169    5.1976 H   0  0  0  0  0  0  0  0  0  0  0  0
    0.9270   -2.7179    2.8406 H   0  0  0  0  0  0  0  0  0  0  0  0
    1.5278   -1.8350    1.4540 H   0  0  0  0  0  0  0  0  0  0  0  0
    0.8920   -0.9736    2.8477 H   0  0  0  0  0  0  0  0  0  0  0  0
    4.7883   -2.7272    3.2452 H   0  0  0  0  0  0  0  0  0  0  0  0
    4.2516   -4.8107    3.5775 H   0  0  0  0  0  0  0  0  0  0  0  0
    2.2471   -5.4958    3.7908 H   0  0  0  0  0  0  0  0  0  0  0  0
  1  2  1  0
  1 25  1  0
  1 26  1  0
  1 27  1  0
  2 13  1  0
  2  3  1  0
  2 28  1  1
  3  4  1  0
  3 29  1  0
  3 30  1  0
  4 23  1  0
  4  5  1  1
  4  6  1  0
  5 31  1  0
  6  7  1  0
  6 32  1  0
  6 33  1  0
  7 14  1  0
  7  8  1  0
  7 34  1  6
  8  9  1  0
  8 10  1  0
  8 35  1  6
  9 36  1  0
  9 37  1  0
  9 38  1  0
 10 11  2  0
 10 12  1  0
 12 13  1  0
 13 14  1  0
 13 39  1  1
 14 22  1  0
 14 15  1  6
 15 16  1  0
 15 17  1  0
 15 40  1  1
 16 41  1  0
 17 18  1  0
 17 42  1  0
 17 43  1  0
 18 19  1  0
 18 44  1  0
 18 45  1  0
 19 20  1  0
 19 21  1  0
 19 22  1  0
 20 46  1  0
 20 47  1  0
 20 48  1  0
 21 49  1  0
 21 50  1  0
 21 51  1  0
 22 23  1  0
 22 52  1  1
 23 24  1  0
 23 53  1  1
 24 54  1  0
M  END
>  <i_m_ct_stereo_status>  (53) 
1

>  <s_m_source_file>  (53) 
/var/tmp/pbs.5076255.sched01/tmp6mkrr40i/0ze8ciewu.sdf

>  <i_m_source_file_index>  (53) 
27

>  <i_lp_mmshare_version>  (53) 
48012

>  <i_f3d_flags>  (53) 
0

>  <s_epik_input>  (53) 
W0NIM11bQ0BIXTFDKD1PKU9bQ0BASF0yW0NASF0oW0NIM10pW0NIMl1bQ0BdKFtPSF0pKFtDSDJdW0NASF0xW0NAQF0yMzQpW0NASF0oW09IXSlbQ0BASF00QyhbQ0gzXSkoW0NIM10pW0NIMl1bQ0gyXVtDQEBIXTNbT0hd

>  <s_epik_cmdline>  (53) 
J2VwaWtfcHl0aG9uJywgJy1waHQnLCAnMi4wJywgJy1waCcsICc3LjAnLCAnLXRuJywgJzgnLCAnLW1hJywgJzIwMCcsICctaW1hZScsICc8aW5maWxlLm1hZT4nLCAnLW9tYWUnLCAnPG91dGZpbGUubWFlPic=

>  <r_lp_tautomer_probability>  (53) 
1

>  <r_epik_Ionization_Penalty>  (53) 
7.33599e-07

>  <r_epik_Ionization_Penalty_Charging>  (53) 
0

>  <r_epik_Ionization_Penalty_Neutral>  (53) 
7.33599e-07

>  <r_epik_State_Penalty>  (53) 
-0

>  <r_epik_Charging_Adjusted_Penalty>  (53) 
0

>  <i_epik_Tot_Q>  (53) 
0

>  <i_epik_Tot_abs_Q>  (53) 
0

>  <s_epik_Chemistry_Notes>  (53) 
This compound has an ester and may undergo hydrolysis at high or low pH.

>  <s_lp_Force_Field>  (53) 
OPLS3e

>  <r_lp_Energy>  (53) 
66.2721

>  <b_lp_Chiralities_Consistent>  (53) 
1

>  <s_lp_Variant>  (53) 
20:0-1

>  <s_i_glide_gridfile>  (53) 
pfpi4k_grid

>  <i_i_glide_lignum>  (53) 
27

>  <i_i_glide_rotatable_bonds>  (53) 
3

>  <r_i_docking_score>  (53) 
-3.54309

>  <r_i_glide_ligand_efficiency>  (53) 
-0.147629

>  <r_i_glide_ligand_efficiency_sa>  (53) 
-0.425835

>  <r_i_glide_ligand_efficiency_ln>  (53) 
-0.848024

>  <r_i_glide_gscore>  (53) 
-3.54309

>  <r_i_glide_lipo>  (53) 
-0.447532

>  <r_i_glide_hbond>  (53) 
0

>  <r_i_glide_metal>  (53) 
-0

>  <r_i_glide_rewards>  (53) 
-1.27468

>  <r_i_glide_evdw>  (53) 
-26.4903

>  <r_i_glide_ecoul>  (53) 
-3.30912

>  <r_i_glide_erotb>  (53) 
0

>  <r_i_glide_esite>  (53) 
0

>  <r_i_glide_emodel>  (53) 
-36.0661

>  <r_i_glide_energy>  (53) 
-29.7994

>  <r_i_glide_einternal>  (53) 
0.854632

>  <r_i_glide_intrahb_reward>  (53) 
-0

>  <i_i_glide_confnum>  (53) 
2

>  <i_i_glide_posenum>  (53) 
27

>  <r_i_glide_eff_state_penalty>  (53) 
0

>  <ligand_id>  (53) 
20

>  <original_smiles>  (53) 
CC1CC2(O)CC3C(C)C(=O)OC1C31C(O)CCC(C)(C)C1C2O

>  <smiles>  (53) 
[H]OC1([H])C2([H])C(C([H])([H])[H])(C([H])([H])[H])C([H])([H])C([H])([H])C([H])(O[H])C23C2([H])OC(=O)C([H])(C([H])([H])[H])C3([H])C([H])([H])C1(O[H])C([H])([H])C2([H])C([H])([H])[H]

$$$$
20:0:2
     RDKit          3D

 54 57  0  0  1  0  0  0  0  0999 V2000
    8.0361   -4.0451    0.2830 C   0  0  0  0  0  0  0  0  0  0  0  0
    6.6873   -4.0989    1.0255 C   0  0  2  0  0  0  0  0  0  0  0  0
    5.9492   -5.4208    0.7409 C   0  0  0  0  0  0  0  0  0  0  0  0
    4.6136   -5.6126    1.4990 C   0  0  2  0  0  0  0  0  0  0  0  0
    4.4485   -7.0204    1.5755 O   0  0  0  0  0  0  0  0  0  0  0  0
    3.3825   -5.0822    0.7440 C   0  0  0  0  0  0  0  0  0  0  0  0
    3.4920   -3.5877    0.3684 C   0  0  2  0  0  0  0  0  0  0  0  0
    3.9072   -3.4944   -1.1380 C   0  0  1  0  0  0  0  0  0  0  0  0
    2.7125   -3.1392   -2.0506 C   0  0  0  0  0  0  0  0  0  0  0  0
    5.1386   -2.6465   -1.4978 C   0  0  0  0  0  0  0  0  0  0  0  0
    5.3296   -2.2743   -2.6555 O   0  0  0  0  0  0  0  0  0  0  0  0
    5.9822   -2.3310   -0.4914 O   0  0  0  0  0  0  0  0  0  0  0  0
    5.8497   -2.8064    0.8481 C   0  0  1  0  0  0  0  0  0  0  0  0
    4.3725   -2.7815    1.3854 C   0  0  1  0  0  0  0  0  0  0  0  0
    3.9709   -1.2506    1.4370 C   0  0  1  0  0  0  0  0  0  0  0  0
    3.6396   -0.6809    0.1906 O   0  0  0  0  0  0  0  0  0  0  0  0
    2.8151   -0.8634    2.3520 C   0  0  0  0  0  0  0  0  0  0  0  0
    3.0859   -1.3635    3.7581 C   0  0  0  0  0  0  0  0  0  0  0  0
    3.1703   -2.9001    3.8277 C   0  0  0  0  0  0  0  0  0  0  0  0
    3.4831   -3.1929    5.3188 C   0  0  0  0  0  0  0  0  0  0  0  0
    1.7711   -3.4749    3.4919 C   0  0  0  0  0  0  0  0  0  0  0  0
    4.3344   -3.4098    2.8678 C   0  0  1  0  0  0  0  0  0  0  0  0
    4.6380   -4.9683    2.9082 C   0  0  1  0  0  0  0  0  0  0  0  0
    3.8318   -5.7402    3.7789 O   0  0  0  0  0  0  0  0  0  0  0  0
    7.8984   -4.0788   -0.7994 H   0  0  0  0  0  0  0  0  0  0  0  0
    8.6684   -4.8911    0.5626 H   0  0  0  0  0  0  0  0  0  0  0  0
    8.5788   -3.1271    0.5149 H   0  0  0  0  0  0  0  0  0  0  0  0
    6.9920   -4.1238    2.0694 H   0  0  0  0  0  0  0  0  0  0  0  0
    5.8029   -5.5867   -0.3244 H   0  0  0  0  0  0  0  0  0  0  0  0
    6.6203   -6.2169    1.0577 H   0  0  0  0  0  0  0  0  0  0  0  0
    3.7200   -7.1913    2.1639 H   0  0  0  0  0  0  0  0  0  0  0  0
    3.2097   -5.6988   -0.1367 H   0  0  0  0  0  0  0  0  0  0  0  0
    2.4939   -5.2349    1.3598 H   0  0  0  0  0  0  0  0  0  0  0  0
    2.4828   -3.1900    0.4317 H   0  0  0  0  0  0  0  0  0  0  0  0
    4.2362   -4.4797   -1.4605 H   0  0  0  0  0  0  0  0  0  0  0  0
    2.9593   -3.3085   -3.0987 H   0  0  0  0  0  0  0  0  0  0  0  0
    2.4042   -2.0984   -1.9506 H   0  0  0  0  0  0  0  0  0  0  0  0
    1.8563   -3.7738   -1.8271 H   0  0  0  0  0  0  0  0  0  0  0  0
    6.3974   -2.0743    1.4444 H   0  0  0  0  0  0  0  0  0  0  0  0
    4.8329   -0.6911    1.8005 H   0  0  0  0  0  0  0  0  0  0  0  0
    2.8030   -1.0224   -0.1090 H   0  0  0  0  0  0  0  0  0  0  0  0
    2.7375    0.2249    2.3836 H   0  0  0  0  0  0  0  0  0  0  0  0
    1.8578   -1.2151    1.9737 H   0  0  0  0  0  0  0  0  0  0  0  0
    4.0202   -0.9282    4.1171 H   0  0  0  0  0  0  0  0  0  0  0  0
    2.3100   -0.9840    4.4299 H   0  0  0  0  0  0  0  0  0  0  0  0
    3.3031   -4.2301    5.6095 H   0  0  0  0  0  0  0  0  0  0  0  0
    2.8550   -2.5914    5.9832 H   0  0  0  0  0  0  0  0  0  0  0  0
    4.5201   -2.9552    5.5628 H   0  0  0  0  0  0  0  0  0  0  0  0
    1.6700   -4.5379    3.7060 H   0  0  0  0  0  0  0  0  0  0  0  0
    1.5184   -3.3353    2.4461 H   0  0  0  0  0  0  0  0  0  0  0  0
    0.9930   -2.9743    4.0758 H   0  0  0  0  0  0  0  0  0  0  0  0
    5.2138   -2.9705    3.3371 H   0  0  0  0  0  0  0  0  0  0  0  0
    5.6290   -5.1132    3.3345 H   0  0  0  0  0  0  0  0  0  0  0  0
    2.9218   -5.5472    3.5965 H   0  0  0  0  0  0  0  0  0  0  0  0
  1  2  1  0
  1 25  1  0
  1 26  1  0
  1 27  1  0
  2 13  1  0
  2  3  1  0
  2 28  1  1
  3  4  1  0
  3 29  1  0
  3 30  1  0
  4 23  1  0
  4  5  1  1
  4  6  1  0
  5 31  1  0
  6  7  1  0
  6 32  1  0
  6 33  1  0
  7 14  1  0
  7  8  1  0
  7 34  1  6
  8  9  1  0
  8 10  1  0
  8 35  1  6
  9 36  1  0
  9 37  1  0
  9 38  1  0
 10 11  2  0
 10 12  1  0
 12 13  1  0
 13 14  1  0
 13 39  1  1
 14 22  1  0
 14 15  1  1
 15 16  1  0
 15 17  1  0
 15 40  1  1
 16 41  1  0
 17 18  1  0
 17 42  1  0
 17 43  1  0
 18 19  1  0
 18 44  1  0
 18 45  1  0
 19 20  1  0
 19 21  1  0
 19 22  1  0
 20 46  1  0
 20 47  1  0
 20 48  1  0
 21 49  1  0
 21 50  1  0
 21 51  1  0
 22 23  1  0
 22 52  1  1
 23 24  1  0
 23 53  1  1
 24 54  1  0
M  END
>  <i_m_ct_stereo_status>  (54) 
1

>  <s_m_source_file>  (54) 
/var/tmp/pbs.5076255.sched01/tmp6mkrr40i/0ze8ciewu.sdf

>  <i_m_source_file_index>  (54) 
27

>  <i_lp_mmshare_version>  (54) 
48012

>  <i_f3d_flags>  (54) 
0

>  <s_epik_input>  (54) 
W0NIM11bQ0BIXTFDKD1PKU9bQ0BASF0yW0NASF0oW0NIM10pW0NIMl1bQ0BdKFtPSF0pKFtDSDJdW0NASF0xW0NAQF0yMzQpW0NASF0oW09IXSlbQ0BASF00QyhbQ0gzXSkoW0NIM10pW0NIMl1bQ0gyXVtDQEBIXTNbT0hd

>  <s_epik_cmdline>  (54) 
J2VwaWtfcHl0aG9uJywgJy1waHQnLCAnMi4wJywgJy1waCcsICc3LjAnLCAnLXRuJywgJzgnLCAnLW1hJywgJzIwMCcsICctaW1hZScsICc8aW5maWxlLm1hZT4nLCAnLW9tYWUnLCAnPG91dGZpbGUubWFlPic=

>  <r_lp_tautomer_probability>  (54) 
1

>  <r_epik_Ionization_Penalty>  (54) 
7.33599e-07

>  <r_epik_Ionization_Penalty_Charging>  (54) 
0

>  <r_epik_Ionization_Penalty_Neutral>  (54) 
7.33599e-07

>  <r_epik_State_Penalty>  (54) 
-0

>  <r_epik_Charging_Adjusted_Penalty>  (54) 
0

>  <i_epik_Tot_Q>  (54) 
0

>  <i_epik_Tot_abs_Q>  (54) 
0

>  <s_epik_Chemistry_Notes>  (54) 
This compound has an ester and may undergo hydrolysis at high or low pH.

>  <s_lp_Force_Field>  (54) 
OPLS3e

>  <r_lp_Energy>  (54) 
66.2721

>  <b_lp_Chiralities_Consistent>  (54) 
1

>  <s_lp_Variant>  (54) 
20:0-1

>  <s_i_glide_gridfile>  (54) 
pfpi4k_grid

>  <i_i_glide_lignum>  (54) 
27

>  <i_i_glide_rotatable_bonds>  (54) 
3

>  <r_i_docking_score>  (54) 
-3.52553

>  <r_i_glide_ligand_efficiency>  (54) 
-0.146897

>  <r_i_glide_ligand_efficiency_sa>  (54) 
-0.423724

>  <r_i_glide_ligand_efficiency_ln>  (54) 
-0.84382

>  <r_i_glide_gscore>  (54) 
-3.52553

>  <r_i_glide_lipo>  (54) 
-0.585147

>  <r_i_glide_hbond>  (54) 
0

>  <r_i_glide_metal>  (54) 
-0

>  <r_i_glide_rewards>  (54) 
-1.10156

>  <r_i_glide_evdw>  (54) 
-24.7994

>  <r_i_glide_ecoul>  (54) 
-3.94314

>  <r_i_glide_erotb>  (54) 
0

>  <r_i_glide_esite>  (54) 
-0.00738138

>  <r_i_glide_emodel>  (54) 
-35.3231

>  <r_i_glide_energy>  (54) 
-28.7426

>  <r_i_glide_einternal>  (54) 
0.0647355

>  <r_i_glide_intrahb_reward>  (54) 
-0

>  <i_i_glide_confnum>  (54) 
2

>  <i_i_glide_posenum>  (54) 
5

>  <r_i_glide_eff_state_penalty>  (54) 
0

>  <ligand_id>  (54) 
20

>  <original_smiles>  (54) 
CC1CC2(O)CC3C(C)C(=O)OC1C31C(O)CCC(C)(C)C1C2O

>  <smiles>  (54) 
[H]OC1([H])C2([H])C(C([H])([H])[H])(C([H])([H])[H])C([H])([H])C([H])([H])C([H])(O[H])C23C2([H])OC(=O)C([H])(C([H])([H])[H])C3([H])C([H])([H])C1(O[H])C([H])([H])C2([H])C([H])([H])[H]

$$$$
21:0:0
     RDKit          3D

 46 49  0  0  1  0  0  0  0  0999 V2000
    5.0186   -2.2357   -2.5352 C   0  0  0  0  0  0  0  0  0  0  0  0
    4.6699   -3.2943   -1.5067 C   0  0  0  0  0  0  0  0  0  0  0  0
    5.5116   -4.2150   -1.0539 C   0  0  0  0  0  0  0  0  0  0  0  0
    6.7730   -3.8530   -0.5848 O   0  0  0  0  0  0  0  0  0  0  0  0
    6.4234   -4.3727    0.6194 C   0  0  0  0  0  0  0  0  0  0  0  0
    7.0438   -4.3641    1.6784 O   0  0  0  0  0  0  0  0  0  0  0  0
    5.0944   -5.0019    0.1308 C   0  0  1  0  0  0  0  0  0  0  0  0
    3.7033   -4.3929    0.4215 C   0  0  1  0  0  0  0  0  0  0  0  0
    2.8357   -5.4643    0.0772 O   0  0  0  0  0  0  0  0  0  0  0  0
    3.3861   -4.1738    1.9376 C   0  0  0  0  0  0  0  0  0  0  0  0
    3.1831   -2.7314    2.4689 C   0  0  2  0  0  0  0  0  0  0  0  0
    2.5988   -1.8098    1.3810 C   0  0  1  0  0  0  0  0  0  0  0  0
    2.2670   -0.3930    1.9054 C   0  0  0  0  0  0  0  0  0  0  0  0
    3.4164    0.2302    2.7041 C   0  0  1  0  0  0  0  0  0  0  0  0
    3.0099    1.4659    3.2527 O   0  0  0  0  0  0  0  0  0  0  0  0
    3.8528   -0.7083    3.8399 C   0  0  0  0  0  0  0  0  0  0  0  0
    4.3224   -2.0848    3.3165 C   0  0  1  0  0  0  0  0  0  0  0  0
    4.7701   -2.9501    4.5088 C   0  0  0  0  0  0  0  0  0  0  0  0
    5.4805   -1.8745    2.5465 O   0  0  0  0  0  0  0  0  0  0  0  0
    3.4397   -1.8224    0.0912 C   0  0  0  0  0  0  0  0  0  0  0  0
    3.4535   -3.2070   -0.6120 C   0  0  1  0  0  0  0  0  0  0  0  0
    2.2012   -3.3711   -1.4860 C   0  0  0  0  0  0  0  0  0  0  0  0
    4.4013   -2.3366   -3.4293 H   0  0  0  0  0  0  0  0  0  0  0  0
    6.0533   -2.3914   -2.8386 H   0  0  0  0  0  0  0  0  0  0  0  0
    4.9281   -1.2225   -2.1464 H   0  0  0  0  0  0  0  0  0  0  0  0
    5.1472   -6.0878    0.0667 H   0  0  0  0  0  0  0  0  0  0  0  0
    3.0112   -5.7062   -0.8322 H   0  0  0  0  0  0  0  0  0  0  0  0
    2.4545   -4.6982    2.1757 H   0  0  0  0  0  0  0  0  0  0  0  0
    4.1210   -4.7126    2.5326 H   0  0  0  0  0  0  0  0  0  0  0  0
    2.3805   -2.8410    3.1963 H   0  0  0  0  0  0  0  0  0  0  0  0
    1.6363   -2.2351    1.1064 H   0  0  0  0  0  0  0  0  0  0  0  0
    1.9846    0.2562    1.0770 H   0  0  0  0  0  0  0  0  0  0  0  0
    1.3842   -0.4517    2.5436 H   0  0  0  0  0  0  0  0  0  0  0  0
    4.2539    0.4322    2.0390 H   0  0  0  0  0  0  0  0  0  0  0  0
    3.5566    2.1474    2.8802 H   0  0  0  0  0  0  0  0  0  0  0  0
    4.6393   -0.2312    4.4259 H   0  0  0  0  0  0  0  0  0  0  0  0
    3.0095   -0.8511    4.5204 H   0  0  0  0  0  0  0  0  0  0  0  0
    3.9322   -3.2194    5.1529 H   0  0  0  0  0  0  0  0  0  0  0  0
    5.4956   -2.4135    5.1216 H   0  0  0  0  0  0  0  0  0  0  0  0
    5.2619   -3.8684    4.1874 H   0  0  0  0  0  0  0  0  0  0  0  0
    5.2351   -1.3761    1.7819 H   0  0  0  0  0  0  0  0  0  0  0  0
    3.0507   -1.0660   -0.5954 H   0  0  0  0  0  0  0  0  0  0  0  0
    4.4591   -1.5105    0.3068 H   0  0  0  0  0  0  0  0  0  0  0  0
    1.3210   -3.4202   -0.8580 H   0  0  0  0  0  0  0  0  0  0  0  0
    2.2043   -4.2587   -2.1151 H   0  0  0  0  0  0  0  0  0  0  0  0
    2.0808   -2.5131   -2.1468 H   0  0  0  0  0  0  0  0  0  0  0  0
  1  2  1  0
  1 23  1  0
  1 24  1  0
  1 25  1  0
  2 21  1  0
  2  3  2  0
  3  7  1  0
  3  4  1  0
  4  5  1  0
  5  6  2  0
  5  7  1  0
  7  8  1  0
  7 26  1  6
  8 21  1  0
  8  9  1  6
  8 10  1  0
  9 27  1  0
 10 11  1  0
 10 28  1  0
 10 29  1  0
 11 17  1  0
 11 12  1  0
 11 30  1  1
 12 13  1  0
 12 20  1  0
 12 31  1  6
 13 14  1  0
 13 32  1  0
 13 33  1  0
 14 15  1  0
 14 16  1  0
 14 34  1  6
 15 35  1  0
 16 17  1  0
 16 36  1  0
 16 37  1  0
 17 18  1  0
 17 19  1  6
 18 38  1  0
 18 39  1  0
 18 40  1  0
 19 41  1  0
 20 21  1  0
 20 42  1  0
 20 43  1  0
 21 22  1  6
 22 44  1  0
 22 45  1  0
 22 46  1  0
M  END
>  <i_m_ct_stereo_status>  (55) 
1

>  <s_m_source_file>  (55) 
/var/tmp/pbs.5076255.sched01/tmp6mkrr40i/0ze8ciewu.sdf

>  <i_m_source_file_index>  (55) 
28

>  <i_lp_mmshare_version>  (55) 
48012

>  <i_f3d_flags>  (55) 
0

>  <s_epik_input>  (55) 
Tz1DMU9DKFtDQEBIXTFbQ0BAXTIzW09IXSk9QyhbQ0gzXSlbQ0BdMyhbQ0gzXSlbQ0gyXVtDQEhdNFtDQEBIXShbQ0gyXTIpW0NAQF0oW0NIM10pKFtPSF0pW0NIMl1bQ0BASF0oW0NIMl00KVtPSF0=

>  <s_epik_cmdline>  (55) 
J2VwaWtfcHl0aG9uJywgJy1waHQnLCAnMi4wJywgJy1waCcsICc3LjAnLCAnLXRuJywgJzgnLCAnLW1hJywgJzIwMCcsICctaW1hZScsICc8aW5maWxlLm1hZT4nLCAnLW9tYWUnLCAnPG91dGZpbGUubWFlPic=

>  <r_lp_tautomer_probability>  (55) 
1

>  <r_epik_Ionization_Penalty>  (55) 
4.76759e-06

>  <r_epik_Ionization_Penalty_Charging>  (55) 
0

>  <r_epik_Ionization_Penalty_Neutral>  (55) 
4.76759e-06

>  <r_epik_State_Penalty>  (55) 
-0

>  <r_epik_Charging_Adjusted_Penalty>  (55) 
0

>  <i_epik_Tot_Q>  (55) 
0

>  <i_epik_Tot_abs_Q>  (55) 
0

>  <s_lp_Force_Field>  (55) 
OPLS3e

>  <r_lp_Energy>  (55) 
49.4285

>  <b_lp_Chiralities_Consistent>  (55) 
1

>  <s_lp_Variant>  (55) 
21:0-1

>  <s_i_glide_gridfile>  (55) 
pfpi4k_grid

>  <i_i_glide_lignum>  (55) 
28

>  <i_i_glide_rotatable_bonds>  (55) 
3

>  <r_i_docking_score>  (55) 
-4.35842

>  <r_i_glide_ligand_efficiency>  (55) 
-0.19811

>  <r_i_glide_ligand_efficiency_sa>  (55) 
-0.555111

>  <r_i_glide_ligand_efficiency_ln>  (55) 
-1.06536

>  <r_i_glide_gscore>  (55) 
-4.35842

>  <r_i_glide_lipo>  (55) 
-0.413486

>  <r_i_glide_hbond>  (55) 
-0.517109

>  <r_i_glide_metal>  (55) 
-0

>  <r_i_glide_rewards>  (55) 
-1.45534

>  <r_i_glide_evdw>  (55) 
-18.5603

>  <r_i_glide_ecoul>  (55) 
-6.9631

>  <r_i_glide_erotb>  (55) 
0

>  <r_i_glide_esite>  (55) 
0

>  <r_i_glide_emodel>  (55) 
-30.8582

>  <r_i_glide_energy>  (55) 
-25.5234

>  <r_i_glide_einternal>  (55) 
1.51086

>  <r_i_glide_intrahb_reward>  (55) 
-0

>  <i_i_glide_confnum>  (55) 
1

>  <i_i_glide_posenum>  (55) 
5

>  <r_i_glide_eff_state_penalty>  (55) 
0

>  <ligand_id>  (55) 
21

>  <original_smiles>  (55) 
CC1=C2OC(=O)C2C2(O)CC3C(CC(O)CC3(C)O)CC12C

>  <smiles>  (55) 
[H]OC1([H])C([H])([H])C2([H])C([H])([H])C3(C([H])([H])[H])C(C([H])([H])[H])=C4OC(=O)C4([H])C3(O[H])C([H])([H])C2([H])C(O[H])(C([H])([H])[H])C1([H])[H]

$$$$
21:0:1
     RDKit          3D

 46 49  0  0  1  0  0  0  0  0999 V2000
    4.9768   -2.2409   -2.5267 C   0  0  0  0  0  0  0  0  0  0  0  0
    4.6378   -3.3056   -1.5075 C   0  0  0  0  0  0  0  0  0  0  0  0
    5.4840   -4.2301   -1.0625 C   0  0  0  0  0  0  0  0  0  0  0  0
    6.7452   -3.8645   -0.5938 O   0  0  0  0  0  0  0  0  0  0  0  0
    6.3835   -4.3679    0.6152 C   0  0  0  0  0  0  0  0  0  0  0  0
    6.9802   -4.3062    1.6799 O   0  0  0  0  0  0  0  0  0  0  0  0
    5.0708   -5.0144    0.1242 C   0  0  1  0  0  0  0  0  0  0  0  0
    3.6764   -4.4136    0.4233 C   0  0  1  0  0  0  0  0  0  0  0  0
    2.8144   -5.4867    0.0776 O   0  0  0  0  0  0  0  0  0  0  0  0
    3.3562   -4.2054    1.9374 C   0  0  0  0  0  0  0  0  0  0  0  0
    3.1454   -2.7654    2.4737 C   0  0  2  0  0  0  0  0  0  0  0  0
    2.5652   -1.8399    1.3858 C   0  0  1  0  0  0  0  0  0  0  0  0
    2.2205   -0.4296    1.9146 C   0  0  0  0  0  0  0  0  0  0  0  0
    3.3649    0.1953    2.7139 C   0  0  1  0  0  0  0  0  0  0  0  0
    2.9298    1.4191    3.2724 O   0  0  0  0  0  0  0  0  0  0  0  0
    3.8027   -0.7416    3.8467 C   0  0  0  0  0  0  0  0  0  0  0  0
    4.2804   -2.1149    3.3211 C   0  0  1  0  0  0  0  0  0  0  0  0
    4.7353   -2.9780    4.5133 C   0  0  0  0  0  0  0  0  0  0  0  0
    5.4357   -1.9041    2.5423 O   0  0  0  0  0  0  0  0  0  0  0  0
    3.4145   -1.8454    0.1041 C   0  0  0  0  0  0  0  0  0  0  0  0
    3.4221   -3.2268   -0.6061 C   0  0  1  0  0  0  0  0  0  0  0  0
    2.1650   -3.3919   -1.4740 C   0  0  0  0  0  0  0  0  0  0  0  0
    4.3547   -2.3424   -3.4179 H   0  0  0  0  0  0  0  0  0  0  0  0
    6.0101   -2.3888   -2.8350 H   0  0  0  0  0  0  0  0  0  0  0  0
    4.8762   -1.2297   -2.1338 H   0  0  0  0  0  0  0  0  0  0  0  0
    5.1346   -6.1020    0.0550 H   0  0  0  0  0  0  0  0  0  0  0  0
    3.0115   -5.7328   -0.8246 H   0  0  0  0  0  0  0  0  0  0  0  0
    2.4277   -4.7383    2.1781 H   0  0  0  0  0  0  0  0  0  0  0  0
    4.0956   -4.7394    2.5339 H   0  0  0  0  0  0  0  0  0  0  0  0
    2.3445   -2.8777    3.2018 H   0  0  0  0  0  0  0  0  0  0  0  0
    1.6004   -2.2552    1.1072 H   0  0  0  0  0  0  0  0  0  0  0  0
    1.9285    0.2172    1.0897 H   0  0  0  0  0  0  0  0  0  0  0  0
    1.3398   -0.4997    2.5547 H   0  0  0  0  0  0  0  0  0  0  0  0
    4.2089    0.4014    2.0575 H   0  0  0  0  0  0  0  0  0  0  0  0
    3.0371    2.0966    2.6225 H   0  0  0  0  0  0  0  0  0  0  0  0
    4.5884   -0.2575    4.4268 H   0  0  0  0  0  0  0  0  0  0  0  0
    2.9611   -0.8886    4.5294 H   0  0  0  0  0  0  0  0  0  0  0  0
    3.8992   -3.2516    5.1597 H   0  0  0  0  0  0  0  0  0  0  0  0
    5.4559   -2.4348    5.1263 H   0  0  0  0  0  0  0  0  0  0  0  0
    5.2328   -3.8961    4.1968 H   0  0  0  0  0  0  0  0  0  0  0  0
    5.7442   -2.7454    2.2439 H   0  0  0  0  0  0  0  0  0  0  0  0
    3.0303   -1.0921   -0.5833 H   0  0  0  0  0  0  0  0  0  0  0  0
    4.4361   -1.5314    0.3250 H   0  0  0  0  0  0  0  0  0  0  0  0
    1.2809   -3.4624   -0.8513 H   0  0  0  0  0  0  0  0  0  0  0  0
    2.1734   -4.2558   -2.1300 H   0  0  0  0  0  0  0  0  0  0  0  0
    2.0376   -2.5376   -2.1359 H   0  0  0  0  0  0  0  0  0  0  0  0
  1  2  1  0
  1 23  1  0
  1 24  1  0
  1 25  1  0
  2 21  1  0
  2  3  2  0
  3  7  1  0
  3  4  1  0
  4  5  1  0
  5  6  2  0
  5  7  1  0
  7  8  1  0
  7 26  1  6
  8 21  1  0
  8  9  1  6
  8 10  1  0
  9 27  1  0
 10 11  1  0
 10 28  1  0
 10 29  1  0
 11 17  1  0
 11 12  1  0
 11 30  1  1
 12 13  1  0
 12 20  1  0
 12 31  1  6
 13 14  1  0
 13 32  1  0
 13 33  1  0
 14 15  1  0
 14 16  1  0
 14 34  1  6
 15 35  1  0
 16 17  1  0
 16 36  1  0
 16 37  1  0
 17 18  1  0
 17 19  1  6
 18 38  1  0
 18 39  1  0
 18 40  1  0
 19 41  1  0
 20 21  1  0
 20 42  1  0
 20 43  1  0
 21 22  1  6
 22 44  1  0
 22 45  1  0
 22 46  1  0
M  END
>  <i_m_ct_stereo_status>  (56) 
1

>  <s_m_source_file>  (56) 
/var/tmp/pbs.5076255.sched01/tmp6mkrr40i/0ze8ciewu.sdf

>  <i_m_source_file_index>  (56) 
28

>  <i_lp_mmshare_version>  (56) 
48012

>  <i_f3d_flags>  (56) 
0

>  <s_epik_input>  (56) 
Tz1DMU9DKFtDQEBIXTFbQ0BAXTIzW09IXSk9QyhbQ0gzXSlbQ0BdMyhbQ0gzXSlbQ0gyXVtDQEhdNFtDQEBIXShbQ0gyXTIpW0NAQF0oW0NIM10pKFtPSF0pW0NIMl1bQ0BASF0oW0NIMl00KVtPSF0=

>  <s_epik_cmdline>  (56) 
J2VwaWtfcHl0aG9uJywgJy1waHQnLCAnMi4wJywgJy1waCcsICc3LjAnLCAnLXRuJywgJzgnLCAnLW1hJywgJzIwMCcsICctaW1hZScsICc8aW5maWxlLm1hZT4nLCAnLW9tYWUnLCAnPG91dGZpbGUubWFlPic=

>  <r_lp_tautomer_probability>  (56) 
1

>  <r_epik_Ionization_Penalty>  (56) 
4.76759e-06

>  <r_epik_Ionization_Penalty_Charging>  (56) 
0

>  <r_epik_Ionization_Penalty_Neutral>  (56) 
4.76759e-06

>  <r_epik_State_Penalty>  (56) 
-0

>  <r_epik_Charging_Adjusted_Penalty>  (56) 
0

>  <i_epik_Tot_Q>  (56) 
0

>  <i_epik_Tot_abs_Q>  (56) 
0

>  <s_lp_Force_Field>  (56) 
OPLS3e

>  <r_lp_Energy>  (56) 
49.4285

>  <b_lp_Chiralities_Consistent>  (56) 
1

>  <s_lp_Variant>  (56) 
21:0-1

>  <s_i_glide_gridfile>  (56) 
pfpi4k_grid

>  <i_i_glide_lignum>  (56) 
28

>  <i_i_glide_rotatable_bonds>  (56) 
3

>  <r_i_docking_score>  (56) 
-3.90558

>  <r_i_glide_ligand_efficiency>  (56) 
-0.177527

>  <r_i_glide_ligand_efficiency_sa>  (56) 
-0.497436

>  <r_i_glide_ligand_efficiency_ln>  (56) 
-0.954667

>  <r_i_glide_gscore>  (56) 
-3.90558

>  <r_i_glide_lipo>  (56) 
-0.390168

>  <r_i_glide_hbond>  (56) 
-0.32

>  <r_i_glide_metal>  (56) 
-0

>  <r_i_glide_rewards>  (56) 
-1.45313

>  <r_i_glide_evdw>  (56) 
-18.608

>  <r_i_glide_ecoul>  (56) 
-5.4126

>  <r_i_glide_erotb>  (56) 
0

>  <r_i_glide_esite>  (56) 
0

>  <r_i_glide_emodel>  (56) 
-28.9226

>  <r_i_glide_energy>  (56) 
-24.0205

>  <r_i_glide_einternal>  (56) 
0.764632

>  <r_i_glide_intrahb_reward>  (56) 
-0

>  <i_i_glide_confnum>  (56) 
1

>  <i_i_glide_posenum>  (56) 
19

>  <r_i_glide_eff_state_penalty>  (56) 
0

>  <ligand_id>  (56) 
21

>  <original_smiles>  (56) 
CC1=C2OC(=O)C2C2(O)CC3C(CC(O)CC3(C)O)CC12C

>  <smiles>  (56) 
[H]OC1([H])C([H])([H])C2([H])C([H])([H])C3(C([H])([H])[H])C(C([H])([H])[H])=C4OC(=O)C4([H])C3(O[H])C([H])([H])C2([H])C(O[H])(C([H])([H])[H])C1([H])[H]

$$$$
22:0:0
     RDKit          3D

 43 49  0  0  1  0  0  0  0  0999 V2000
    3.9034   -0.6600   -3.3532 C   0  0  0  0  0  0  0  0  0  0  0  0
    3.8867   -1.2910   -1.9385 C   0  0  2  0  0  0  0  0  0  0  0  0
    5.3598   -1.1439   -1.3493 C   0  0  0  0  0  0  0  0  0  0  0  0
    5.5887   -0.7752    0.1485 C   0  0  2  0  0  0  0  0  0  0  0  0
    6.9876   -0.9220    0.4754 O   0  0  0  0  0  0  0  0  0  0  0  0
    6.1266   -1.4754    1.4539 C   0  0  2  0  0  0  0  0  0  0  0  0
    6.2471   -2.9084    1.6743 O   0  0  0  0  0  0  0  0  0  0  0  0
    5.0161   -3.5452    2.1152 C   0  0  1  0  0  0  0  0  0  0  0  0
    4.6250   -3.1437    3.4129 O   0  0  0  0  0  0  0  0  0  0  0  0
    4.0741   -3.2218    1.0072 C   0  0  1  0  0  0  0  0  0  0  0  0
    2.9592   -2.3413    0.6252 C   0  0  0  0  0  0  0  0  0  0  0  0
    2.5806   -3.2678   -0.5837 C   0  0  2  0  0  0  0  0  0  0  0  0
    2.9588   -4.7861   -0.0533 C   0  0  1  0  0  0  0  0  0  0  0  0
    4.4180   -5.4545    0.0798 C   0  0  1  0  0  0  0  0  0  0  0  0
    5.4158   -4.6610   -0.6387 C   0  0  0  0  0  0  0  0  0  0  0  0
    4.9940   -3.3799   -0.1742 O   0  0  0  0  0  0  0  0  0  0  0  0
    4.6407   -5.0677    1.5975 C   0  0  1  0  0  0  0  0  0  0  0  0
    4.7751   -6.1241    2.5192 O   0  0  0  0  0  0  0  0  0  0  0  0
    3.2962   -4.4939    1.3545 C   0  0  1  0  0  0  0  0  0  0  0  0
    2.2874   -4.5715    2.3532 O   0  0  0  0  0  0  0  0  0  0  0  0
    3.1563   -2.6875   -1.9391 C   0  0  1  0  0  0  0  0  0  0  0  0
    2.3111   -3.0943   -3.1295 C   0  0  0  0  0  0  0  0  0  0  0  0
    3.6296   -3.5922   -2.9393 O   0  0  0  0  0  0  0  0  0  0  0  0
    4.4362   -1.3080   -4.0541 H   0  0  0  0  0  0  0  0  0  0  0  0
    4.3881    0.3144   -3.3699 H   0  0  0  0  0  0  0  0  0  0  0  0
    2.8971   -0.4844   -3.7332 H   0  0  0  0  0  0  0  0  0  0  0  0
    3.2071   -0.6478   -1.3882 H   0  0  0  0  0  0  0  0  0  0  0  0
    5.9995   -1.9738   -1.6528 H   0  0  0  0  0  0  0  0  0  0  0  0
    5.8175   -0.3069   -1.8674 H   0  0  0  0  0  0  0  0  0  0  0  0
    5.1416    0.1837    0.3970 H   0  0  0  0  0  0  0  0  0  0  0  0
    6.1307   -0.9259    2.3921 H   0  0  0  0  0  0  0  0  0  0  0  0
    4.3947   -2.2312    3.3305 H   0  0  0  0  0  0  0  0  0  0  0  0
    2.1717   -2.3125    1.3853 H   0  0  0  0  0  0  0  0  0  0  0  0
    3.2135   -1.3041    0.4873 H   0  0  0  0  0  0  0  0  0  0  0  0
    1.4993   -3.2038   -0.6844 H   0  0  0  0  0  0  0  0  0  0  0  0
    2.1837   -5.5414   -0.1353 H   0  0  0  0  0  0  0  0  0  0  0  0
    4.4264   -6.5339   -0.1007 H   0  0  0  0  0  0  0  0  0  0  0  0
    6.4230   -4.8769   -0.2867 H   0  0  0  0  0  0  0  0  0  0  0  0
    5.3658   -4.7746   -1.7190 H   0  0  0  0  0  0  0  0  0  0  0  0
    5.6788   -6.3976    2.4859 H   0  0  0  0  0  0  0  0  0  0  0  0
    2.6165   -4.1003    3.1031 H   0  0  0  0  0  0  0  0  0  0  0  0
    1.5238   -3.8106   -2.9295 H   0  0  0  0  0  0  0  0  0  0  0  0
    2.2080   -2.5122   -4.0410 H   0  0  0  0  0  0  0  0  0  0  0  0
  1  2  1  0
  1 24  1  0
  1 25  1  0
  1 26  1  0
  2 21  1  0
  2  3  1  0
  2 27  1  1
  3  4  1  0
  3 28  1  0
  3 29  1  0
  4  6  1  0
  4  5  1  0
  4 30  1  1
  5  6  1  0
  6  7  1  0
  6 31  1  1
  7  8  1  0
  8 17  1  0
  8  9  1  1
  8 10  1  0
  9 32  1  0
 10 16  1  6
 10 19  1  0
 10 11  1  0
 11 12  1  0
 11 33  1  0
 11 34  1  0
 12 13  1  0
 12 21  1  0
 12 35  1  6
 13 19  1  0
 13 14  1  0
 13 36  1  1
 14 15  1  0
 14 17  1  0
 14 37  1  1
 15 16  1  0
 15 38  1  0
 15 39  1  0
 17 18  1  1
 17 19  1  0
 18 40  1  0
 19 20  1  1
 20 41  1  0
 21 23  1  6
 21 22  1  0
 22 23  1  0
 22 42  1  0
 22 43  1  0
M  END
>  <i_m_ct_stereo_status>  (57) 
1

>  <s_m_source_file>  (57) 
/var/tmp/pbs.5076255.sched01/tmp6mkrr40i/0ze8ciewu.sdf

>  <i_m_source_file_index>  (57) 
29

>  <i_lp_mmshare_version>  (57) 
48012

>  <i_f3d_flags>  (57) 
0

>  <s_epik_input>  (57) 
TzFbQ0BIXShPMilbQ0BASF0xW0NIMl1bQ0BASF0oW0NIM10pW0NAXTMoW0NIMl1PMylbQ0BIXShbQ0gyXTQpW0NASF0oW0NAXTU2W09IXSlbQ0BASF0oW0NIMl1PNylbQ0BAXTYoW09IXSlbQ0BAXTIoW0NAXTQ1NylbT0hd

>  <s_epik_cmdline>  (57) 
J2VwaWtfcHl0aG9uJywgJy1waHQnLCAnMi4wJywgJy1waCcsICc3LjAnLCAnLXRuJywgJzgnLCAnLW1hJywgJzIwMCcsICctaW1hZScsICc8aW5maWxlLm1hZT4nLCAnLW9tYWUnLCAnPG91dGZpbGUubWFlPic=

>  <r_lp_tautomer_probability>  (57) 
1

>  <r_epik_Ionization_Penalty>  (57) 
1.81068e-06

>  <r_epik_Ionization_Penalty_Charging>  (57) 
0

>  <r_epik_Ionization_Penalty_Neutral>  (57) 
1.81068e-06

>  <r_epik_State_Penalty>  (57) 
-0

>  <r_epik_Charging_Adjusted_Penalty>  (57) 
0

>  <i_epik_Tot_Q>  (57) 
0

>  <i_epik_Tot_abs_Q>  (57) 
0

>  <s_epik_Chemistry_Notes>  (57) 
This compound contains an acetal/aminal-like group ( X-CH(R)-Y where X, Y are N, S, or O) that may be acid/base labile, releasing an aldehyde.

>  <s_lp_Force_Field>  (57) 
OPLS3e

>  <r_lp_Energy>  (57) 
209.603

>  <b_lp_Chiralities_Consistent>  (57) 
1

>  <s_lp_Variant>  (57) 
22:0-1

>  <s_i_glide_gridfile>  (57) 
pfpi4k_grid

>  <i_i_glide_lignum>  (57) 
29

>  <i_i_glide_rotatable_bonds>  (57) 
3

>  <r_i_docking_score>  (57) 
-3.27092

>  <r_i_glide_ligand_efficiency>  (57) 
-0.142214

>  <r_i_glide_ligand_efficiency_sa>  (57) 
-0.404438

>  <r_i_glide_ligand_efficiency_ln>  (57) 
-0.790939

>  <r_i_glide_gscore>  (57) 
-3.27092

>  <r_i_glide_lipo>  (57) 
-0.484252

>  <r_i_glide_hbond>  (57) 
-0.0178563

>  <r_i_glide_metal>  (57) 
-0

>  <r_i_glide_rewards>  (57) 
-1.52537

>  <r_i_glide_evdw>  (57) 
-21.0398

>  <r_i_glide_ecoul>  (57) 
-1.27634

>  <r_i_glide_erotb>  (57) 
0

>  <r_i_glide_esite>  (57) 
0

>  <r_i_glide_emodel>  (57) 
-25.8304

>  <r_i_glide_energy>  (57) 
-22.3161

>  <r_i_glide_einternal>  (57) 
0.674904

>  <r_i_glide_intrahb_reward>  (57) 
-0

>  <i_i_glide_confnum>  (57) 
2

>  <i_i_glide_posenum>  (57) 
3

>  <r_i_glide_eff_state_penalty>  (57) 
0

>  <ligand_id>  (57) 
22

>  <original_smiles>  (57) 
CC1CC2OC2OC2(O)C34CC(C5C(CO3)C2(O)C54O)C12CO2

>  <smiles>  (57) 
[H]OC12OC3([H])OC3([H])C([H])([H])C([H])(C([H])([H])[H])C3(OC3([H])[H])C3([H])C([H])([H])C14OC([H])([H])C1([H])C3([H])C4(O[H])C21O[H]

$$$$
22:0:1
     RDKit          3D

 43 49  0  0  1  0  0  0  0  0999 V2000
    3.9326   -0.6420   -3.0995 C   0  0  0  0  0  0  0  0  0  0  0  0
    3.8698   -1.3248   -1.7098 C   0  0  2  0  0  0  0  0  0  0  0  0
    5.3373   -1.2220   -1.1085 C   0  0  0  0  0  0  0  0  0  0  0  0
    5.5552   -0.9311    0.4050 C   0  0  2  0  0  0  0  0  0  0  0  0
    6.9495   -1.1104    0.7219 O   0  0  0  0  0  0  0  0  0  0  0  0
    6.0789   -1.7056    1.6677 C   0  0  2  0  0  0  0  0  0  0  0  0
    6.1958   -3.1438    1.8125 O   0  0  0  0  0  0  0  0  0  0  0  0
    4.9719   -3.8040    2.2217 C   0  0  1  0  0  0  0  0  0  0  0  0
    4.5894   -3.4690    3.5420 O   0  0  0  0  0  0  0  0  0  0  0  0
    4.0336   -3.4251    1.1296 C   0  0  1  0  0  0  0  0  0  0  0  0
    2.9191   -2.5310    0.7707 C   0  0  0  0  0  0  0  0  0  0  0  0
    2.5532   -3.3950   -0.4876 C   0  0  2  0  0  0  0  0  0  0  0  0
    2.9318   -4.9348   -0.0237 C   0  0  1  0  0  0  0  0  0  0  0  0
    4.3932   -5.6059    0.0793 C   0  0  1  0  0  0  0  0  0  0  0  0
    5.3989   -4.7746   -0.5701 C   0  0  0  0  0  0  0  0  0  0  0  0
    4.9545   -3.5219   -0.0584 O   0  0  0  0  0  0  0  0  0  0  0  0
    4.5945   -5.2905    1.6258 C   0  0  1  0  0  0  0  0  0  0  0  0
    4.6969   -6.4039    2.4837 O   0  0  0  0  0  0  0  0  0  0  0  0
    3.2523   -4.7087    1.4017 C   0  0  1  0  0  0  0  0  0  0  0  0
    2.2504   -4.8315    2.4010 O   0  0  0  0  0  0  0  0  0  0  0  0
    3.1517   -2.7281   -1.8017 C   0  0  1  0  0  0  0  0  0  0  0  0
    2.3353   -3.0838   -3.0325 C   0  0  0  0  0  0  0  0  0  0  0  0
    3.6557   -3.5785   -2.8414 O   0  0  0  0  0  0  0  0  0  0  0  0
    4.4788   -1.2619   -3.8219 H   0  0  0  0  0  0  0  0  0  0  0  0
    4.4200    0.3333   -3.0720 H   0  0  0  0  0  0  0  0  0  0  0  0
    2.9383   -0.4382   -3.4900 H   0  0  0  0  0  0  0  0  0  0  0  0
    3.2131   -0.6973   -1.1495 H   0  0  0  0  0  0  0  0  0  0  0  0
    5.9902   -2.0375   -1.4416 H   0  0  0  0  0  0  0  0  0  0  0  0
    5.7748   -0.3495   -1.5702 H   0  0  0  0  0  0  0  0  0  0  0  0
    5.1254    0.0247    0.6956 H   0  0  0  0  0  0  0  0  0  0  0  0
    6.0729   -1.2035    2.6348 H   0  0  0  0  0  0  0  0  0  0  0  0
    4.2927   -2.5748    3.4987 H   0  0  0  0  0  0  0  0  0  0  0  0
    2.1220   -2.5427    1.5167 H   0  0  0  0  0  0  0  0  0  0  0  0
    3.1706   -1.4890    0.6802 H   0  0  0  0  0  0  0  0  0  0  0  0
    1.4795   -3.3227   -0.6183 H   0  0  0  0  0  0  0  0  0  0  0  0
    2.1665   -5.6929   -0.1668 H   0  0  0  0  0  0  0  0  0  0  0  0
    4.4061   -6.6687   -0.1426 H   0  0  0  0  0  0  0  0  0  0  0  0
    6.3981   -5.0123   -0.2066 H   0  0  0  0  0  0  0  0  0  0  0  0
    5.3731   -4.8395   -1.6569 H   0  0  0  0  0  0  0  0  0  0  0  0
    5.6016   -6.6699    2.4642 H   0  0  0  0  0  0  0  0  0  0  0  0
    2.3047   -5.7212    2.7228 H   0  0  0  0  0  0  0  0  0  0  0  0
    1.5510   -3.8174   -2.8904 H   0  0  0  0  0  0  0  0  0  0  0  0
    2.2463   -2.4589   -3.9196 H   0  0  0  0  0  0  0  0  0  0  0  0
  1  2  1  0
  1 24  1  0
  1 25  1  0
  1 26  1  0
  2 21  1  0
  2  3  1  0
  2 27  1  1
  3  4  1  0
  3 28  1  0
  3 29  1  0
  4  6  1  0
  4  5  1  0
  4 30  1  1
  5  6  1  0
  6  7  1  0
  6 31  1  1
  7  8  1  0
  8 17  1  0
  8  9  1  1
  8 10  1  0
  9 32  1  0
 10 16  1  6
 10 19  1  0
 10 11  1  0
 11 12  1  0
 11 33  1  0
 11 34  1  0
 12 13  1  0
 12 21  1  0
 12 35  1  6
 13 19  1  0
 13 14  1  0
 13 36  1  1
 14 15  1  0
 14 17  1  0
 14 37  1  1
 15 16  1  0
 15 38  1  0
 15 39  1  0
 17 18  1  1
 17 19  1  0
 18 40  1  0
 19 20  1  1
 20 41  1  0
 21 23  1  6
 21 22  1  0
 22 23  1  0
 22 42  1  0
 22 43  1  0
M  END
>  <i_m_ct_stereo_status>  (58) 
1

>  <s_m_source_file>  (58) 
/var/tmp/pbs.5076255.sched01/tmp6mkrr40i/0ze8ciewu.sdf

>  <i_m_source_file_index>  (58) 
29

>  <i_lp_mmshare_version>  (58) 
48012

>  <i_f3d_flags>  (58) 
0

>  <s_epik_input>  (58) 
TzFbQ0BIXShPMilbQ0BASF0xW0NIMl1bQ0BASF0oW0NIM10pW0NAXTMoW0NIMl1PMylbQ0BIXShbQ0gyXTQpW0NASF0oW0NAXTU2W09IXSlbQ0BASF0oW0NIMl1PNylbQ0BAXTYoW09IXSlbQ0BAXTIoW0NAXTQ1NylbT0hd

>  <s_epik_cmdline>  (58) 
J2VwaWtfcHl0aG9uJywgJy1waHQnLCAnMi4wJywgJy1waCcsICc3LjAnLCAnLXRuJywgJzgnLCAnLW1hJywgJzIwMCcsICctaW1hZScsICc8aW5maWxlLm1hZT4nLCAnLW9tYWUnLCAnPG91dGZpbGUubWFlPic=

>  <r_lp_tautomer_probability>  (58) 
1

>  <r_epik_Ionization_Penalty>  (58) 
1.81068e-06

>  <r_epik_Ionization_Penalty_Charging>  (58) 
0

>  <r_epik_Ionization_Penalty_Neutral>  (58) 
1.81068e-06

>  <r_epik_State_Penalty>  (58) 
-0

>  <r_epik_Charging_Adjusted_Penalty>  (58) 
0

>  <i_epik_Tot_Q>  (58) 
0

>  <i_epik_Tot_abs_Q>  (58) 
0

>  <s_epik_Chemistry_Notes>  (58) 
This compound contains an acetal/aminal-like group ( X-CH(R)-Y where X, Y are N, S, or O) that may be acid/base labile, releasing an aldehyde.

>  <s_lp_Force_Field>  (58) 
OPLS3e

>  <r_lp_Energy>  (58) 
209.603

>  <b_lp_Chiralities_Consistent>  (58) 
1

>  <s_lp_Variant>  (58) 
22:0-1

>  <s_i_glide_gridfile>  (58) 
pfpi4k_grid

>  <i_i_glide_lignum>  (58) 
29

>  <i_i_glide_rotatable_bonds>  (58) 
3

>  <r_i_docking_score>  (58) 
-3.10118

>  <r_i_glide_ligand_efficiency>  (58) 
-0.134834

>  <r_i_glide_ligand_efficiency_sa>  (58) 
-0.383449

>  <r_i_glide_ligand_efficiency_ln>  (58) 
-0.749892

>  <r_i_glide_gscore>  (58) 
-3.10118

>  <r_i_glide_lipo>  (58) 
-0.486185

>  <r_i_glide_hbond>  (58) 
0

>  <r_i_glide_metal>  (58) 
-0

>  <r_i_glide_rewards>  (58) 
-1.46036

>  <r_i_glide_evdw>  (58) 
-21.4272

>  <r_i_glide_ecoul>  (58) 
-0.555154

>  <r_i_glide_erotb>  (58) 
0

>  <r_i_glide_esite>  (58) 
0

>  <r_i_glide_emodel>  (58) 
-25.243

>  <r_i_glide_energy>  (58) 
-21.9823

>  <r_i_glide_einternal>  (58) 
0.295026

>  <r_i_glide_intrahb_reward>  (58) 
-0

>  <i_i_glide_confnum>  (58) 
2

>  <i_i_glide_posenum>  (58) 
2

>  <r_i_glide_eff_state_penalty>  (58) 
0

>  <ligand_id>  (58) 
22

>  <original_smiles>  (58) 
CC1CC2OC2OC2(O)C34CC(C5C(CO3)C2(O)C54O)C12CO2

>  <smiles>  (58) 
[H]OC12OC3([H])OC3([H])C([H])([H])C([H])(C([H])([H])[H])C3(OC3([H])[H])C3([H])C([H])([H])C14OC([H])([H])C1([H])C3([H])C4(O[H])C21O[H]

$$$$
22:0:2
     RDKit          3D

 43 49  0  0  1  0  0  0  0  0999 V2000
    2.3542   -3.2603   -3.7203 C   0  0  0  0  0  0  0  0  0  0  0  0
    3.2698   -3.2743   -2.4841 C   0  0  2  0  0  0  0  0  0  0  0  0
    2.3927   -3.8263   -1.2502 C   0  0  0  0  0  0  0  0  0  0  0  0
    3.0336   -4.7895   -0.1971 C   0  0  2  0  0  0  0  0  0  0  0  0
    2.1193   -5.0393    0.8905 O   0  0  0  0  0  0  0  0  0  0  0  0
    3.4513   -4.7610    1.3138 C   0  0  2  0  0  0  0  0  0  0  0  0
    3.6487   -3.5513    2.0909 O   0  0  0  0  0  0  0  0  0  0  0  0
    4.9747   -2.9951    1.9402 C   0  0  1  0  0  0  0  0  0  0  0  0
    5.9785   -3.8291    2.4670 O   0  0  0  0  0  0  0  0  0  0  0  0
    5.0646   -2.7140    0.4723 C   0  0  1  0  0  0  0  0  0  0  0  0
    5.6335   -3.2216   -0.8008 C   0  0  0  0  0  0  0  0  0  0  0  0
    5.3835   -1.8524   -1.5061 C   0  0  2  0  0  0  0  0  0  0  0  0
    5.5283   -0.7186   -0.2908 C   0  0  1  0  0  0  0  0  0  0  0  0
    4.5257   -0.3809    0.9056 C   0  0  1  0  0  0  0  0  0  0  0  0
    3.2160   -0.9472    0.6972 C   0  0  0  0  0  0  0  0  0  0  0  0
    3.6696   -2.2223    0.2236 O   0  0  0  0  0  0  0  0  0  0  0  0
    5.1836   -1.3481    1.9705 C   0  0  1  0  0  0  0  0  0  0  0  0
    5.7654   -0.7441    3.0852 O   0  0  0  0  0  0  0  0  0  0  0  0
    6.0313   -1.5862    0.7746 C   0  0  1  0  0  0  0  0  0  0  0  0
    7.4290   -1.7483    0.8798 O   0  0  0  0  0  0  0  0  0  0  0  0
    4.0751   -1.9035   -2.3688 C   0  0  1  0  0  0  0  0  0  0  0  0
    4.0857   -0.9190   -3.5356 C   0  0  0  0  0  0  0  0  0  0  0  0
    3.2945   -0.6998   -2.3913 O   0  0  0  0  0  0  0  0  0  0  0  0
    1.5968   -2.4786   -3.6459 H   0  0  0  0  0  0  0  0  0  0  0  0
    1.8305   -4.2096   -3.8333 H   0  0  0  0  0  0  0  0  0  0  0  0
    2.9016   -3.1510   -4.6564 H   0  0  0  0  0  0  0  0  0  0  0  0
    3.9767   -4.0502   -2.7756 H   0  0  0  0  0  0  0  0  0  0  0  0
    1.8230   -3.0437   -0.7599 H   0  0  0  0  0  0  0  0  0  0  0  0
    1.5893   -4.4303   -1.6717 H   0  0  0  0  0  0  0  0  0  0  0  0
    3.4695   -5.6680   -0.6603 H   0  0  0  0  0  0  0  0  0  0  0  0
    3.9522   -5.6171    1.7469 H   0  0  0  0  0  0  0  0  0  0  0  0
    5.9304   -4.6307    1.9622 H   0  0  0  0  0  0  0  0  0  0  0  0
    6.6955   -3.4366   -0.7316 H   0  0  0  0  0  0  0  0  0  0  0  0
    5.2044   -4.1359   -1.1813 H   0  0  0  0  0  0  0  0  0  0  0  0
    6.1857   -1.7294   -2.2295 H   0  0  0  0  0  0  0  0  0  0  0  0
    6.1890    0.1253   -0.4578 H   0  0  0  0  0  0  0  0  0  0  0  0
    4.5778    0.6613    1.2093 H   0  0  0  0  0  0  0  0  0  0  0  0
    2.6624   -1.0274    1.6313 H   0  0  0  0  0  0  0  0  0  0  0  0
    2.6379   -0.3797   -0.0191 H   0  0  0  0  0  0  0  0  0  0  0  0
    6.6803   -0.5903    2.8573 H   0  0  0  0  0  0  0  0  0  0  0  0
    7.5601   -2.5404    1.3687 H   0  0  0  0  0  0  0  0  0  0  0  0
    4.8991   -0.2184   -3.6003 H   0  0  0  0  0  0  0  0  0  0  0  0
    3.5065   -1.0422   -4.4438 H   0  0  0  0  0  0  0  0  0  0  0  0
  1  2  1  0
  1 24  1  0
  1 25  1  0
  1 26  1  0
  2 21  1  0
  2  3  1  0
  2 27  1  6
  3  4  1  0
  3 28  1  0
  3 29  1  0
  4  6  1  0
  4  5  1  0
  4 30  1  6
  5  6  1  0
  6  7  1  0
  6 31  1  6
  7  8  1  0
  8 17  1  0
  8  9  1  1
  8 10  1  0
  9 32  1  0
 10 16  1  6
 10 19  1  0
 10 11  1  0
 11 12  1  0
 11 33  1  0
 11 34  1  0
 12 13  1  0
 12 21  1  0
 12 35  1  6
 13 19  1  0
 13 14  1  0
 13 36  1  6
 14 15  1  0
 14 17  1  0
 14 37  1  1
 15 16  1  0
 15 38  1  0
 15 39  1  0
 17 18  1  1
 17 19  1  0
 18 40  1  0
 19 20  1  1
 20 41  1  0
 21 23  1  1
 21 22  1  0
 22 23  1  0
 22 42  1  0
 22 43  1  0
M  END
>  <i_m_ct_stereo_status>  (59) 
1

>  <s_m_source_file>  (59) 
/var/tmp/pbs.5076255.sched01/tmp6mkrr40i/0ze8ciewu.sdf

>  <i_m_source_file_index>  (59) 
29

>  <i_lp_mmshare_version>  (59) 
48012

>  <i_f3d_flags>  (59) 
0

>  <s_epik_input>  (59) 
TzFbQ0BIXShPMilbQ0BASF0xW0NIMl1bQ0BASF0oW0NIM10pW0NAXTMoW0NIMl1PMylbQ0BIXShbQ0gyXTQpW0NASF0oW0NAXTU2W09IXSlbQ0BASF0oW0NIMl1PNylbQ0BAXTYoW09IXSlbQ0BAXTIoW0NAXTQ1NylbT0hd

>  <s_epik_cmdline>  (59) 
J2VwaWtfcHl0aG9uJywgJy1waHQnLCAnMi4wJywgJy1waCcsICc3LjAnLCAnLXRuJywgJzgnLCAnLW1hJywgJzIwMCcsICctaW1hZScsICc8aW5maWxlLm1hZT4nLCAnLW9tYWUnLCAnPG91dGZpbGUubWFlPic=

>  <r_lp_tautomer_probability>  (59) 
1

>  <r_epik_Ionization_Penalty>  (59) 
1.81068e-06

>  <r_epik_Ionization_Penalty_Charging>  (59) 
0

>  <r_epik_Ionization_Penalty_Neutral>  (59) 
1.81068e-06

>  <r_epik_State_Penalty>  (59) 
-0

>  <r_epik_Charging_Adjusted_Penalty>  (59) 
0

>  <i_epik_Tot_Q>  (59) 
0

>  <i_epik_Tot_abs_Q>  (59) 
0

>  <s_epik_Chemistry_Notes>  (59) 
This compound contains an acetal/aminal-like group ( X-CH(R)-Y where X, Y are N, S, or O) that may be acid/base labile, releasing an aldehyde.

>  <s_lp_Force_Field>  (59) 
OPLS3e

>  <r_lp_Energy>  (59) 
209.603

>  <b_lp_Chiralities_Consistent>  (59) 
1

>  <s_lp_Variant>  (59) 
22:0-1

>  <s_i_glide_gridfile>  (59) 
pfpi4k_grid

>  <i_i_glide_lignum>  (59) 
29

>  <i_i_glide_rotatable_bonds>  (59) 
3

>  <r_i_docking_score>  (59) 
-2.89875

>  <r_i_glide_ligand_efficiency>  (59) 
-0.126032

>  <r_i_glide_ligand_efficiency_sa>  (59) 
-0.35842

>  <r_i_glide_ligand_efficiency_ln>  (59) 
-0.700943

>  <r_i_glide_gscore>  (59) 
-2.89875

>  <r_i_glide_lipo>  (59) 
-0.893145

>  <r_i_glide_hbond>  (59) 
-0.0353349

>  <r_i_glide_metal>  (59) 
-0

>  <r_i_glide_rewards>  (59) 
-1.26103

>  <r_i_glide_evdw>  (59) 
-11.9053

>  <r_i_glide_ecoul>  (59) 
-0.759771

>  <r_i_glide_erotb>  (59) 
0

>  <r_i_glide_esite>  (59) 
0

>  <r_i_glide_emodel>  (59) 
-15.7776

>  <r_i_glide_energy>  (59) 
-12.6651

>  <r_i_glide_einternal>  (59) 
0.691629

>  <r_i_glide_intrahb_reward>  (59) 
-0

>  <i_i_glide_confnum>  (59) 
2

>  <i_i_glide_posenum>  (59) 
36

>  <r_i_glide_eff_state_penalty>  (59) 
0

>  <ligand_id>  (59) 
22

>  <original_smiles>  (59) 
CC1CC2OC2OC2(O)C34CC(C5C(CO3)C2(O)C54O)C12CO2

>  <smiles>  (59) 
[H]OC12OC3([H])OC3([H])C([H])([H])C([H])(C([H])([H])[H])C3(OC3([H])[H])C3([H])C([H])([H])C14OC([H])([H])C1([H])C3([H])C4(O[H])C21O[H]

$$$$
24:0:0
     RDKit          3D

 58 63  0  0  1  0  0  0  0  0999 V2000
    4.5830   -1.1299   -1.4991 C   0  0  0  0  0  0  0  0  0  0  0  0
    5.1002   -2.4661   -0.8650 C   0  0  0  0  0  0  0  0  0  0  0  0
    5.1911   -3.3900   -2.1215 C   0  0  0  0  0  0  0  0  0  0  0  0
    6.5355   -2.2096   -0.3203 C   0  0  1  0  0  0  0  0  0  0  0  0
    6.5996   -1.0597    0.5057 O   0  0  0  0  0  0  0  0  0  0  0  0
    7.1513   -3.3805    0.4501 C   0  0  0  0  0  0  0  0  0  0  0  0
    6.2346   -3.8958    1.5636 C   0  0  0  0  0  0  0  0  0  0  0  0
    4.8267   -4.2978    1.0590 C   0  0  1  0  0  0  0  0  0  0  0  0
    4.9977   -5.5448    0.1365 C   0  0  0  0  0  0  0  0  0  0  0  0
    3.9138   -4.8200    2.2264 C   0  0  1  0  0  0  0  0  0  0  0  0
    4.0021   -6.1947    2.9424 C   0  0  0  0  0  0  0  0  0  0  0  0
    2.6619   -6.7715    3.4992 C   0  0  2  0  0  0  0  0  0  0  0  0
    1.3627   -5.9300    3.3690 C   0  0  0  0  0  0  0  0  0  0  0  0
    0.4190   -5.9815    2.5630 O   0  0  0  0  0  0  0  0  0  0  0  0
    1.5607   -5.1576    4.7472 C   0  0  1  0  0  0  0  0  0  0  0  0
    2.9003   -4.8811    5.2197 O   0  0  0  0  0  0  0  0  0  0  0  0
    3.5193   -3.7184    4.7441 C   0  0  2  0  0  0  0  0  0  0  0  0
    2.3805   -2.8218    5.1359 C   0  0  0  0  0  0  0  0  0  0  0  0
    1.4818   -3.6231    4.2275 C   0  0  1  0  0  0  0  0  0  0  0  0
    2.1683   -3.3033    2.8473 C   0  0  1  0  0  0  0  0  0  0  0  0
    2.2382   -1.9692    2.0925 C   0  0  0  0  0  0  0  0  0  0  0  0
    3.4472   -1.8557    1.0815 C   0  0  0  0  0  0  0  0  0  0  0  0
    4.1247   -3.0692    0.2519 C   0  0  1  0  0  0  0  0  0  0  0  0
    3.5724   -3.6603    3.2017 C   0  0  2  0  0  0  0  0  0  0  0  0
    2.3248   -6.6125    5.0012 C   0  0  1  0  0  0  0  0  0  0  0  0
    1.4921   -7.6262    5.5241 O   0  0  0  0  0  0  0  0  0  0  0  0
    5.2208   -0.8024   -2.3195 H   0  0  0  0  0  0  0  0  0  0  0  0
    4.5873   -0.2982   -0.7961 H   0  0  0  0  0  0  0  0  0  0  0  0
    3.5705   -1.2366   -1.8922 H   0  0  0  0  0  0  0  0  0  0  0  0
    6.1290   -3.9331   -2.1475 H   0  0  0  0  0  0  0  0  0  0  0  0
    5.1762   -2.8449   -3.0646 H   0  0  0  0  0  0  0  0  0  0  0  0
    4.3686   -4.1060   -2.1731 H   0  0  0  0  0  0  0  0  0  0  0  0
    7.1919   -2.0014   -1.1686 H   0  0  0  0  0  0  0  0  0  0  0  0
    7.4500   -0.9720    0.8887 H   0  0  0  0  0  0  0  0  0  0  0  0
    7.4090   -4.1867   -0.2381 H   0  0  0  0  0  0  0  0  0  0  0  0
    8.1100   -3.0808    0.8769 H   0  0  0  0  0  0  0  0  0  0  0  0
    6.7055   -4.7423    2.0647 H   0  0  0  0  0  0  0  0  0  0  0  0
    6.1719   -3.1069    2.3088 H   0  0  0  0  0  0  0  0  0  0  0  0
    4.0482   -5.8786   -0.2901 H   0  0  0  0  0  0  0  0  0  0  0  0
    5.4557   -6.3863    0.6492 H   0  0  0  0  0  0  0  0  0  0  0  0
    5.6764   -5.3862   -0.6845 H   0  0  0  0  0  0  0  0  0  0  0  0
    3.0835   -5.0745    1.5881 H   0  0  0  0  0  0  0  0  0  0  0  0
    4.4134   -6.9635    2.2970 H   0  0  0  0  0  0  0  0  0  0  0  0
    4.7441   -6.1169    3.7555 H   0  0  0  0  0  0  0  0  0  0  0  0
    2.4811   -7.8041    3.1942 H   0  0  0  0  0  0  0  0  0  0  0  0
    4.4572   -3.5171    5.2556 H   0  0  0  0  0  0  0  0  0  0  0  0
    2.1051   -2.8873    6.1976 H   0  0  0  0  0  0  0  0  0  0  0  0
    2.5226   -1.7777    4.8627 H   0  0  0  0  0  0  0  0  0  0  0  0
    0.4662   -3.2446    4.2439 H   0  0  0  0  0  0  0  0  0  0  0  0
    1.6503   -3.8629    2.0746 H   0  0  0  0  0  0  0  0  0  0  0  0
    1.2955   -1.8422    1.5478 H   0  0  0  0  0  0  0  0  0  0  0  0
    2.2869   -1.1296    2.7785 H   0  0  0  0  0  0  0  0  0  0  0  0
    3.0179   -1.1620    0.3681 H   0  0  0  0  0  0  0  0  0  0  0  0
    4.2449   -1.2967    1.5671 H   0  0  0  0  0  0  0  0  0  0  0  0
    3.2762   -3.5021   -0.2713 H   0  0  0  0  0  0  0  0  0  0  0  0
    4.2681   -2.8389    3.0957 H   0  0  0  0  0  0  0  0  0  0  0  0
    3.2647   -6.7646    5.5510 H   0  0  0  0  0  0  0  0  0  0  0  0
    2.0336   -8.3882    5.6408 H   0  0  0  0  0  0  0  0  0  0  0  0
  1  2  1  0
  1 27  1  0
  1 28  1  0
  1 29  1  0
  2 23  1  0
  2  3  1  0
  2  4  1  0
  3 30  1  0
  3 31  1  0
  3 32  1  0
  4  5  1  0
  4  6  1  0
  4 33  1  6
  5 34  1  0
  6  7  1  0
  6 35  1  0
  6 36  1  0
  7  8  1  0
  7 37  1  0
  7 38  1  0
  8 23  1  0
  8  9  1  6
  8 10  1  0
  9 39  1  0
  9 40  1  0
  9 41  1  0
 10 24  1  0
 10 11  1  0
 10 42  1  6
 11 12  1  0
 11 43  1  0
 11 44  1  0
 12 25  1  0
 12 13  1  0
 12 45  1  6
 13 14  2  0
 13 15  1  0
 15 19  1  0
 15 16  1  6
 15 25  1  0
 16 17  1  0
 17 24  1  0
 17 18  1  0
 17 46  1  1
 18 19  1  0
 18 47  1  0
 18 48  1  0
 19 20  1  0
 19 49  1  6
 20 21  1  0
 20 24  1  0
 20 50  1  6
 21 22  1  0
 21 51  1  0
 21 52  1  0
 22 23  1  0
 22 53  1  0
 22 54  1  0
 23 55  1  6
 24 56  1  1
 25 26  1  0
 25 57  1  1
 26 58  1  0
M  END
>  <i_m_ct_stereo_status>  (60) 
1

>  <s_m_source_file>  (60) 
/var/tmp/pbs.5076255.sched01/tmp6mkrr40i/0ze8ciewu.sdf

>  <i_m_source_file_index>  (60) 
32

>  <i_lp_mmshare_version>  (60) 
48012

>  <i_f3d_flags>  (60) 
0

>  <s_epik_input>  (60) 
W0NIMl0xW0NIMl1bQ0BIXShbT0hdKUMoW0NIM10pKFtDSDNdKVtDQEhdKFtDSDJdW0NIMl0yKVtDQF0xKFtDSDNdKVtDQEhdKFtDQEBIXShbQ0BIXShPMylbQ0gyXTQpW0NASF0yW0NASF00W0NAXTM1NilbQ0gyXVtDQEhdKEM1PU8pW0NAQEhdNltPSF0=

>  <s_epik_cmdline>  (60) 
J2VwaWtfcHl0aG9uJywgJy1waHQnLCAnMi4wJywgJy1waCcsICc3LjAnLCAnLXRuJywgJzgnLCAnLW1hJywgJzIwMCcsICctaW1hZScsICc8aW5maWxlLm1hZT4nLCAnLW9tYWUnLCAnPG91dGZpbGUubWFlPic=

>  <r_lp_tautomer_probability>  (60) 
1

>  <r_epik_Ionization_Penalty>  (60) 
3.27569e-06

>  <r_epik_Ionization_Penalty_Charging>  (60) 
0

>  <r_epik_Ionization_Penalty_Neutral>  (60) 
3.27569e-06

>  <r_epik_State_Penalty>  (60) 
-0

>  <r_epik_Charging_Adjusted_Penalty>  (60) 
0

>  <i_epik_Tot_Q>  (60) 
0

>  <i_epik_Tot_abs_Q>  (60) 
0

>  <s_lp_Force_Field>  (60) 
OPLS3e

>  <r_lp_Energy>  (60) 
241.811

>  <b_lp_Chiralities_Consistent>  (60) 
1

>  <s_lp_Variant>  (60) 
24:0-1

>  <s_i_glide_gridfile>  (60) 
pfpi4k_grid

>  <i_i_glide_lignum>  (60) 
32

>  <i_i_glide_rotatable_bonds>  (60) 
2

>  <r_i_docking_score>  (60) 
-3.23404

>  <r_i_glide_ligand_efficiency>  (60) 
-0.124386

>  <r_i_glide_ligand_efficiency_sa>  (60) 
-0.368493

>  <r_i_glide_ligand_efficiency_ln>  (60) 
-0.759503

>  <r_i_glide_gscore>  (60) 
-3.23404

>  <r_i_glide_lipo>  (60) 
-0.471387

>  <r_i_glide_hbond>  (60) 
-0.135419

>  <r_i_glide_metal>  (60) 
-0

>  <r_i_glide_rewards>  (60) 
-0.951224

>  <r_i_glide_evdw>  (60) 
-23.9867

>  <r_i_glide_ecoul>  (60) 
-3.05775

>  <r_i_glide_erotb>  (60) 
0

>  <r_i_glide_esite>  (60) 
-0.0180046

>  <r_i_glide_emodel>  (60) 
-31.8847

>  <r_i_glide_energy>  (60) 
-27.0445

>  <r_i_glide_einternal>  (60) 
1.81941

>  <r_i_glide_intrahb_reward>  (60) 
-0

>  <i_i_glide_confnum>  (60) 
2

>  <i_i_glide_posenum>  (60) 
23

>  <r_i_glide_eff_state_penalty>  (60) 
0

>  <ligand_id>  (60) 
24

>  <original_smiles>  (60) 
CC1(C)C(O)CCC2(C)C3CC4C(=O)C5(OC6CC5C(CCC12)C63)C4O

>  <smiles>  (60) 
[H]OC1([H])C2([H])C(=O)C13OC1([H])C([H])([H])C3([H])C3([H])C([H])([H])C([H])([H])C4([H])C(C([H])([H])[H])(C([H])([H])[H])C([H])(O[H])C([H])([H])C([H])([H])C4(C([H])([H])[H])C([H])(C2([H])[H])C13[H]

$$$$
24:0:1
     RDKit          3D

 58 63  0  0  1  0  0  0  0  0999 V2000
    4.3417   -1.1497   -1.7208 C   0  0  0  0  0  0  0  0  0  0  0  0
    4.8923   -2.4901   -1.1267 C   0  0  0  0  0  0  0  0  0  0  0  0
    4.8567   -3.4221   -2.3785 C   0  0  0  0  0  0  0  0  0  0  0  0
    6.3750   -2.2557   -0.7281 C   0  0  1  0  0  0  0  0  0  0  0  0
    6.5419   -1.1121    0.0829 O   0  0  0  0  0  0  0  0  0  0  0  0
    7.0446   -3.4212    0.0024 C   0  0  0  0  0  0  0  0  0  0  0  0
    6.2334   -3.9201    1.2028 C   0  0  0  0  0  0  0  0  0  0  0  0
    4.7745   -4.2994    0.8374 C   0  0  1  0  0  0  0  0  0  0  0  0
    4.8271   -5.5554   -0.0810 C   0  0  0  0  0  0  0  0  0  0  0  0
    3.9640   -4.7978    2.0874 C   0  0  1  0  0  0  0  0  0  0  0  0
    4.0938   -6.1713    2.8003 C   0  0  0  0  0  0  0  0  0  0  0  0
    2.7997   -6.7170    3.4858 C   0  0  2  0  0  0  0  0  0  0  0  0
    1.5123   -5.8479    3.4742 C   0  0  0  0  0  0  0  0  0  0  0  0
    0.5019   -5.8711    2.7534 O   0  0  0  0  0  0  0  0  0  0  0  0
    1.8563   -5.0760    4.8221 C   0  0  1  0  0  0  0  0  0  0  0  0
    3.2408   -4.8218    5.1596 O   0  0  0  0  0  0  0  0  0  0  0  0
    3.8302   -3.6740    4.6184 C   0  0  2  0  0  0  0  0  0  0  0  0
    2.7507   -2.7543    5.1091 C   0  0  0  0  0  0  0  0  0  0  0  0
    1.7544   -3.5434    4.2967 C   0  0  1  0  0  0  0  0  0  0  0  0
    2.3076   -3.2458    2.8524 C   0  0  1  0  0  0  0  0  0  0  0  0
    2.3323   -1.9178    2.0855 C   0  0  0  0  0  0  0  0  0  0  0  0
    3.4448   -1.8342    0.9658 C   0  0  0  0  0  0  0  0  0  0  0  0
    4.0198   -3.0658    0.0870 C   0  0  1  0  0  0  0  0  0  0  0  0
    3.7347   -3.6272    3.0782 C   0  0  2  0  0  0  0  0  0  0  0  0
    2.6112   -6.5444    5.0104 C   0  0  1  0  0  0  0  0  0  0  0  0
    1.8105   -7.5386    5.6153 O   0  0  0  0  0  0  0  0  0  0  0  0
    4.9046   -0.8415   -2.6022 H   0  0  0  0  0  0  0  0  0  0  0  0
    4.4290   -0.3127   -1.0305 H   0  0  0  0  0  0  0  0  0  0  0  0
    3.2944   -1.2396   -2.0147 H   0  0  0  0  0  0  0  0  0  0  0  0
    5.7713   -3.9980   -2.4876 H   0  0  0  0  0  0  0  0  0  0  0  0
    4.7644   -2.8841   -3.3207 H   0  0  0  0  0  0  0  0  0  0  0  0
    4.0169   -4.1138   -2.3460 H   0  0  0  0  0  0  0  0  0  0  0  0
    6.9481   -2.0687   -1.6400 H   0  0  0  0  0  0  0  0  0  0  0  0
    6.0550   -1.2385    0.8701 H   0  0  0  0  0  0  0  0  0  0  0  0
    7.2183   -4.2251   -0.7063 H   0  0  0  0  0  0  0  0  0  0  0  0
    8.0436   -3.1287    0.3314 H   0  0  0  0  0  0  0  0  0  0  0  0
    6.7353   -4.7764    1.6554 H   0  0  0  0  0  0  0  0  0  0  0  0
    6.2583   -3.1354    1.9552 H   0  0  0  0  0  0  0  0  0  0  0  0
    3.8254   -5.8815   -0.3778 H   0  0  0  0  0  0  0  0  0  0  0  0
    5.3315   -6.3990    0.3830 H   0  0  0  0  0  0  0  0  0  0  0  0
    5.3957   -5.4146   -0.9861 H   0  0  0  0  0  0  0  0  0  0  0  0
    3.0718   -5.0404    1.5321 H   0  0  0  0  0  0  0  0  0  0  0  0
    4.4268   -6.9520    2.1249 H   0  0  0  0  0  0  0  0  0  0  0  0
    4.9109   -6.1037    3.5389 H   0  0  0  0  0  0  0  0  0  0  0  0
    2.5722   -7.7481    3.2088 H   0  0  0  0  0  0  0  0  0  0  0  0
    4.8167   -3.4883    5.0351 H   0  0  0  0  0  0  0  0  0  0  0  0
    2.5769   -2.8083    6.1923 H   0  0  0  0  0  0  0  0  0  0  0  0
    2.8860   -1.7149    4.8153 H   0  0  0  0  0  0  0  0  0  0  0  0
    0.7521   -3.1460    4.4086 H   0  0  0  0  0  0  0  0  0  0  0  0
    1.7106   -3.7971    2.1312 H   0  0  0  0  0  0  0  0  0  0  0  0
    1.3445   -1.7756    1.6318 H   0  0  0  0  0  0  0  0  0  0  0  0
    2.4626   -1.0772    2.7590 H   0  0  0  0  0  0  0  0  0  0  0  0
    2.9679   -1.1365    0.2882 H   0  0  0  0  0  0  0  0  0  0  0  0
    4.2887   -1.2849    1.3750 H   0  0  0  0  0  0  0  0  0  0  0  0
    3.1187   -3.4883   -0.3503 H   0  0  0  0  0  0  0  0  0  0  0  0
    4.4322   -2.8204    2.9007 H   0  0  0  0  0  0  0  0  0  0  0  0
    3.5948   -6.7137    5.4716 H   0  0  0  0  0  0  0  0  0  0  0  0
    2.3399   -8.3164    5.6685 H   0  0  0  0  0  0  0  0  0  0  0  0
  1  2  1  0
  1 27  1  0
  1 28  1  0
  1 29  1  0
  2 23  1  0
  2  3  1  0
  2  4  1  0
  3 30  1  0
  3 31  1  0
  3 32  1  0
  4  5  1  0
  4  6  1  0
  4 33  1  6
  5 34  1  0
  6  7  1  0
  6 35  1  0
  6 36  1  0
  7  8  1  0
  7 37  1  0
  7 38  1  0
  8 23  1  0
  8  9  1  6
  8 10  1  0
  9 39  1  0
  9 40  1  0
  9 41  1  0
 10 24  1  0
 10 11  1  0
 10 42  1  6
 11 12  1  0
 11 43  1  0
 11 44  1  0
 12 25  1  0
 12 13  1  0
 12 45  1  1
 13 14  2  0
 13 15  1  0
 15 19  1  0
 15 16  1  6
 15 25  1  0
 16 17  1  0
 17 24  1  0
 17 18  1  0
 17 46  1  6
 18 19  1  0
 18 47  1  0
 18 48  1  0
 19 20  1  0
 19 49  1  6
 20 21  1  0
 20 24  1  0
 20 50  1  6
 21 22  1  0
 21 51  1  0
 21 52  1  0
 22 23  1  0
 22 53  1  0
 22 54  1  0
 23 55  1  6
 24 56  1  6
 25 26  1  0
 25 57  1  1
 26 58  1  0
M  END
>  <i_m_ct_stereo_status>  (61) 
1

>  <s_m_source_file>  (61) 
/var/tmp/pbs.5076255.sched01/tmp6mkrr40i/0ze8ciewu.sdf

>  <i_m_source_file_index>  (61) 
32

>  <i_lp_mmshare_version>  (61) 
48012

>  <i_f3d_flags>  (61) 
0

>  <s_epik_input>  (61) 
W0NIMl0xW0NIMl1bQ0BIXShbT0hdKUMoW0NIM10pKFtDSDNdKVtDQEhdKFtDSDJdW0NIMl0yKVtDQF0xKFtDSDNdKVtDQEhdKFtDQEBIXShbQ0BIXShPMylbQ0gyXTQpW0NASF0yW0NASF00W0NAXTM1NilbQ0gyXVtDQEhdKEM1PU8pW0NAQEhdNltPSF0=

>  <s_epik_cmdline>  (61) 
J2VwaWtfcHl0aG9uJywgJy1waHQnLCAnMi4wJywgJy1waCcsICc3LjAnLCAnLXRuJywgJzgnLCAnLW1hJywgJzIwMCcsICctaW1hZScsICc8aW5maWxlLm1hZT4nLCAnLW9tYWUnLCAnPG91dGZpbGUubWFlPic=

>  <r_lp_tautomer_probability>  (61) 
1

>  <r_epik_Ionization_Penalty>  (61) 
3.27569e-06

>  <r_epik_Ionization_Penalty_Charging>  (61) 
0

>  <r_epik_Ionization_Penalty_Neutral>  (61) 
3.27569e-06

>  <r_epik_State_Penalty>  (61) 
-0

>  <r_epik_Charging_Adjusted_Penalty>  (61) 
0

>  <i_epik_Tot_Q>  (61) 
0

>  <i_epik_Tot_abs_Q>  (61) 
0

>  <s_lp_Force_Field>  (61) 
OPLS3e

>  <r_lp_Energy>  (61) 
241.811

>  <b_lp_Chiralities_Consistent>  (61) 
1

>  <s_lp_Variant>  (61) 
24:0-1

>  <s_i_glide_gridfile>  (61) 
pfpi4k_grid

>  <i_i_glide_lignum>  (61) 
32

>  <i_i_glide_rotatable_bonds>  (61) 
2

>  <r_i_docking_score>  (61) 
-3.12818

>  <r_i_glide_ligand_efficiency>  (61) 
-0.120315

>  <r_i_glide_ligand_efficiency_sa>  (61) 
-0.356432

>  <r_i_glide_ligand_efficiency_ln>  (61) 
-0.734643

>  <r_i_glide_gscore>  (61) 
-3.12818

>  <r_i_glide_lipo>  (61) 
-0.367627

>  <r_i_glide_hbond>  (61) 
-0.127833

>  <r_i_glide_metal>  (61) 
-0

>  <r_i_glide_rewards>  (61) 
-0.951224

>  <r_i_glide_evdw>  (61) 
-23.4753

>  <r_i_glide_ecoul>  (61) 
-3.29536

>  <r_i_glide_erotb>  (61) 
0

>  <r_i_glide_esite>  (61) 
-0.0134286

>  <r_i_glide_emodel>  (61) 
-31.6053

>  <r_i_glide_energy>  (61) 
-26.7707

>  <r_i_glide_einternal>  (61) 
1.44266

>  <r_i_glide_intrahb_reward>  (61) 
-0

>  <i_i_glide_confnum>  (61) 
2

>  <i_i_glide_posenum>  (61) 
1

>  <r_i_glide_eff_state_penalty>  (61) 
0

>  <ligand_id>  (61) 
24

>  <original_smiles>  (61) 
CC1(C)C(O)CCC2(C)C3CC4C(=O)C5(OC6CC5C(CCC12)C63)C4O

>  <smiles>  (61) 
[H]OC1([H])C2([H])C(=O)C13OC1([H])C([H])([H])C3([H])C3([H])C([H])([H])C([H])([H])C4([H])C(C([H])([H])[H])(C([H])([H])[H])C([H])(O[H])C([H])([H])C([H])([H])C4(C([H])([H])[H])C([H])(C2([H])[H])C13[H]

$$$$
24:0:2
     RDKit          3D

 58 63  0  0  1  0  0  0  0  0999 V2000
    4.4277   -1.1705   -1.7077 C   0  0  0  0  0  0  0  0  0  0  0  0
    4.9787   -2.5003   -1.0911 C   0  0  0  0  0  0  0  0  0  0  0  0
    4.9659   -3.4463   -2.3322 C   0  0  0  0  0  0  0  0  0  0  0  0
    6.4546   -2.2568   -0.6752 C   0  0  1  0  0  0  0  0  0  0  0  0
    6.6057   -1.1002    0.1191 O   0  0  0  0  0  0  0  0  0  0  0  0
    7.1240   -3.4079    0.0785 C   0  0  0  0  0  0  0  0  0  0  0  0
    6.2988   -3.8910    1.2764 C   0  0  0  0  0  0  0  0  0  0  0  0
    4.8473   -4.2850    0.8966 C   0  0  1  0  0  0  0  0  0  0  0  0
    4.9246   -5.5495   -0.0044 C   0  0  0  0  0  0  0  0  0  0  0  0
    4.0213   -4.7763    2.1393 C   0  0  1  0  0  0  0  0  0  0  0  0
    4.1502   -6.1436    2.8739 C   0  0  0  0  0  0  0  0  0  0  0  0
    2.8531   -6.6976    3.5523 C   0  0  2  0  0  0  0  0  0  0  0  0
    1.5613   -5.8324    3.5032 C   0  0  0  0  0  0  0  0  0  0  0  0
    0.5598   -5.8758    2.7729 O   0  0  0  0  0  0  0  0  0  0  0  0
    1.8736   -5.0340    4.8442 C   0  0  1  0  0  0  0  0  0  0  0  0
    3.2520   -4.7683    5.1951 O   0  0  0  0  0  0  0  0  0  0  0  0
    3.8428   -3.6215    4.6502 C   0  0  2  0  0  0  0  0  0  0  0  0
    2.7497   -2.7052    5.1141 C   0  0  0  0  0  0  0  0  0  0  0  0
    1.7699   -3.5127    4.2974 C   0  0  1  0  0  0  0  0  0  0  0  0
    2.3450   -3.2289    2.8571 C   0  0  1  0  0  0  0  0  0  0  0  0
    2.3701   -1.9087    2.0777 C   0  0  0  0  0  0  0  0  0  0  0  0
    3.4964   -1.8291    0.9711 C   0  0  0  0  0  0  0  0  0  0  0  0
    4.0941   -3.0667    0.1182 C   0  0  1  0  0  0  0  0  0  0  0  0
    3.7702   -3.5950    3.1081 C   0  0  2  0  0  0  0  0  0  0  0  0
    2.6310   -6.4977    5.0746 C   0  0  1  0  0  0  0  0  0  0  0  0
    1.8337   -7.4702    5.7215 O   0  0  0  0  0  0  0  0  0  0  0  0
    5.0007   -0.8673   -2.5849 H   0  0  0  0  0  0  0  0  0  0  0  0
    4.4977   -0.3236   -1.0271 H   0  0  0  0  0  0  0  0  0  0  0  0
    3.3853   -1.2715   -2.0168 H   0  0  0  0  0  0  0  0  0  0  0  0
    5.8888   -4.0094   -2.4232 H   0  0  0  0  0  0  0  0  0  0  0  0
    4.8814   -2.9168   -3.2812 H   0  0  0  0  0  0  0  0  0  0  0  0
    4.1360   -4.1509   -2.3027 H   0  0  0  0  0  0  0  0  0  0  0  0
    7.0381   -2.0740   -1.5826 H   0  0  0  0  0  0  0  0  0  0  0  0
    6.1097   -1.2202    0.9080 H   0  0  0  0  0  0  0  0  0  0  0  0
    7.3163   -4.2317   -0.6063 H   0  0  0  0  0  0  0  0  0  0  0  0
    8.1153   -3.0991    0.4165 H   0  0  0  0  0  0  0  0  0  0  0  0
    6.8013   -4.7377    1.7468 H   0  0  0  0  0  0  0  0  0  0  0  0
    6.3086   -3.0937    2.0146 H   0  0  0  0  0  0  0  0  0  0  0  0
    3.9358   -5.8858   -0.3278 H   0  0  0  0  0  0  0  0  0  0  0  0
    5.4279   -6.3854    0.4739 H   0  0  0  0  0  0  0  0  0  0  0  0
    5.5098   -5.4014   -0.8937 H   0  0  0  0  0  0  0  0  0  0  0  0
    3.1426   -5.0323    1.5708 H   0  0  0  0  0  0  0  0  0  0  0  0
    4.5058   -6.9245    2.2091 H   0  0  0  0  0  0  0  0  0  0  0  0
    4.9589   -6.0569    3.6176 H   0  0  0  0  0  0  0  0  0  0  0  0
    2.6393   -7.7324    3.2809 H   0  0  0  0  0  0  0  0  0  0  0  0
    4.8218   -3.4264    5.0804 H   0  0  0  0  0  0  0  0  0  0  0  0
    2.5622   -2.7498    6.1939 H   0  0  0  0  0  0  0  0  0  0  0  0
    2.8836   -1.6683    4.8110 H   0  0  0  0  0  0  0  0  0  0  0  0
    0.7645   -3.1170    4.3874 H   0  0  0  0  0  0  0  0  0  0  0  0
    1.7648   -3.7926    2.1318 H   0  0  0  0  0  0  0  0  0  0  0  0
    1.3887   -1.7814    1.6065 H   0  0  0  0  0  0  0  0  0  0  0  0
    2.4829   -1.0592    2.7426 H   0  0  0  0  0  0  0  0  0  0  0  0
    3.0162   -1.1466    0.2790 H   0  0  0  0  0  0  0  0  0  0  0  0
    4.3299   -1.2666    1.3850 H   0  0  0  0  0  0  0  0  0  0  0  0
    3.2032   -3.5020   -0.3286 H   0  0  0  0  0  0  0  0  0  0  0  0
    4.4650   -2.7847    2.9323 H   0  0  0  0  0  0  0  0  0  0  0  0
    3.6245   -6.6527    5.5257 H   0  0  0  0  0  0  0  0  0  0  0  0
    1.1085   -7.6752    5.1605 H   0  0  0  0  0  0  0  0  0  0  0  0
  1  2  1  0
  1 27  1  0
  1 28  1  0
  1 29  1  0
  2 23  1  0
  2  3  1  0
  2  4  1  0
  3 30  1  0
  3 31  1  0
  3 32  1  0
  4  5  1  0
  4  6  1  0
  4 33  1  6
  5 34  1  0
  6  7  1  0
  6 35  1  0
  6 36  1  0
  7  8  1  0
  7 37  1  0
  7 38  1  0
  8 23  1  0
  8  9  1  6
  8 10  1  0
  9 39  1  0
  9 40  1  0
  9 41  1  0
 10 24  1  0
 10 11  1  0
 10 42  1  6
 11 12  1  0
 11 43  1  0
 11 44  1  0
 12 25  1  0
 12 13  1  0
 12 45  1  1
 13 14  2  0
 13 15  1  0
 15 19  1  0
 15 16  1  6
 15 25  1  0
 16 17  1  0
 17 24  1  0
 17 18  1  0
 17 46  1  6
 18 19  1  0
 18 47  1  0
 18 48  1  0
 19 20  1  0
 19 49  1  6
 20 21  1  0
 20 24  1  0
 20 50  1  6
 21 22  1  0
 21 51  1  0
 21 52  1  0
 22 23  1  0
 22 53  1  0
 22 54  1  0
 23 55  1  6
 24 56  1  6
 25 26  1  0
 25 57  1  1
 26 58  1  0
M  END
>  <i_m_ct_stereo_status>  (62) 
1

>  <s_m_source_file>  (62) 
/var/tmp/pbs.5076255.sched01/tmp6mkrr40i/0ze8ciewu.sdf

>  <i_m_source_file_index>  (62) 
32

>  <i_lp_mmshare_version>  (62) 
48012

>  <i_f3d_flags>  (62) 
0

>  <s_epik_input>  (62) 
W0NIMl0xW0NIMl1bQ0BIXShbT0hdKUMoW0NIM10pKFtDSDNdKVtDQEhdKFtDSDJdW0NIMl0yKVtDQF0xKFtDSDNdKVtDQEhdKFtDQEBIXShbQ0BIXShPMylbQ0gyXTQpW0NASF0yW0NASF00W0NAXTM1NilbQ0gyXVtDQEhdKEM1PU8pW0NAQEhdNltPSF0=

>  <s_epik_cmdline>  (62) 
J2VwaWtfcHl0aG9uJywgJy1waHQnLCAnMi4wJywgJy1waCcsICc3LjAnLCAnLXRuJywgJzgnLCAnLW1hJywgJzIwMCcsICctaW1hZScsICc8aW5maWxlLm1hZT4nLCAnLW9tYWUnLCAnPG91dGZpbGUubWFlPic=

>  <r_lp_tautomer_probability>  (62) 
1

>  <r_epik_Ionization_Penalty>  (62) 
3.27569e-06

>  <r_epik_Ionization_Penalty_Charging>  (62) 
0

>  <r_epik_Ionization_Penalty_Neutral>  (62) 
3.27569e-06

>  <r_epik_State_Penalty>  (62) 
-0

>  <r_epik_Charging_Adjusted_Penalty>  (62) 
0

>  <i_epik_Tot_Q>  (62) 
0

>  <i_epik_Tot_abs_Q>  (62) 
0

>  <s_lp_Force_Field>  (62) 
OPLS3e

>  <r_lp_Energy>  (62) 
241.811

>  <b_lp_Chiralities_Consistent>  (62) 
1

>  <s_lp_Variant>  (62) 
24:0-1

>  <s_i_glide_gridfile>  (62) 
pfpi4k_grid

>  <i_i_glide_lignum>  (62) 
32

>  <i_i_glide_rotatable_bonds>  (62) 
2

>  <r_i_docking_score>  (62) 
-3.10583

>  <r_i_glide_ligand_efficiency>  (62) 
-0.119455

>  <r_i_glide_ligand_efficiency_sa>  (62) 
-0.353884

>  <r_i_glide_ligand_efficiency_ln>  (62) 
-0.729393

>  <r_i_glide_gscore>  (62) 
-3.10583

>  <r_i_glide_lipo>  (62) 
-0.419162

>  <r_i_glide_hbond>  (62) 
-0.110518

>  <r_i_glide_metal>  (62) 
-0

>  <r_i_glide_rewards>  (62) 
-0.951224

>  <r_i_glide_evdw>  (62) 
-23.8666

>  <r_i_glide_ecoul>  (62) 
-2.79655

>  <r_i_glide_erotb>  (62) 
0

>  <r_i_glide_esite>  (62) 
-0.0121092

>  <r_i_glide_emodel>  (62) 
-32.1457

>  <r_i_glide_energy>  (62) 
-26.6631

>  <r_i_glide_einternal>  (62) 
0.0857317

>  <r_i_glide_intrahb_reward>  (62) 
-0

>  <i_i_glide_confnum>  (62) 
2

>  <i_i_glide_posenum>  (62) 
25

>  <r_i_glide_eff_state_penalty>  (62) 
0

>  <ligand_id>  (62) 
24

>  <original_smiles>  (62) 
CC1(C)C(O)CCC2(C)C3CC4C(=O)C5(OC6CC5C(CCC12)C63)C4O

>  <smiles>  (62) 
[H]OC1([H])C2([H])C(=O)C13OC1([H])C([H])([H])C3([H])C3([H])C([H])([H])C([H])([H])C4([H])C(C([H])([H])[H])(C([H])([H])[H])C([H])(O[H])C([H])([H])C([H])([H])C4(C([H])([H])[H])C([H])(C2([H])[H])C13[H]

$$$$
24:1:0
     RDKit          3D

 58 63  0  0  1  0  0  0  0  0999 V2000
    4.5721   -0.9618   -2.2993 C   0  0  0  0  0  0  0  0  0  0  0  0
    4.4766   -2.2736   -1.4636 C   0  0  0  0  0  0  0  0  0  0  0  0
    3.7262   -3.2109   -2.4550 C   0  0  0  0  0  0  0  0  0  0  0  0
    5.9138   -2.8290   -1.2429 C   0  0  1  0  0  0  0  0  0  0  0  0
    6.7904   -1.8512   -0.7033 O   0  0  0  0  0  0  0  0  0  0  0  0
    5.9745   -4.0463   -0.3079 C   0  0  0  0  0  0  0  0  0  0  0  0
    5.2408   -3.8281    1.0239 C   0  0  0  0  0  0  0  0  0  0  0  0
    3.7609   -3.4131    0.8398 C   0  0  1  0  0  0  0  0  0  0  0  0
    2.9819   -4.6152    0.2275 C   0  0  0  0  0  0  0  0  0  0  0  0
    3.0647   -3.1312    2.2168 C   0  0  1  0  0  0  0  0  0  0  0  0
    2.4297   -4.2340    3.1484 C   0  0  0  0  0  0  0  0  0  0  0  0
    1.5857   -3.7903    4.3854 C   0  0  2  0  0  0  0  0  0  0  0  0
    1.0363   -2.3570    4.4721 C   0  0  0  0  0  0  0  0  0  0  0  0
   -0.0497   -1.8728    4.1272 O   0  0  0  0  0  0  0  0  0  0  0  0
    2.2237   -1.7636    5.3757 C   0  0  1  0  0  0  0  0  0  0  0  0
    3.5975   -2.1974    5.3492 O   0  0  0  0  0  0  0  0  0  0  0  0
    4.4175   -1.6203    4.3532 C   0  0  2  0  0  0  0  0  0  0  0  0
    4.0523   -0.2070    4.7095 C   0  0  0  0  0  0  0  0  0  0  0  0
    2.6293   -0.5499    4.3977 C   0  0  1  0  0  0  0  0  0  0  0  0
    2.8001   -0.9270    2.8926 C   0  0  1  0  0  0  0  0  0  0  0  0
    3.2321    0.0083    1.7395 C   0  0  0  0  0  0  0  0  0  0  0  0
    4.0855   -0.6954    0.6163 C   0  0  0  0  0  0  0  0  0  0  0  0
    3.6888   -2.0925   -0.0856 C   0  0  1  0  0  0  0  0  0  0  0  0
    3.8876   -1.9837    2.9131 C   0  0  2  0  0  0  0  0  0  0  0  0
    2.2472   -3.3894    5.7141 C   0  0  1  0  0  0  0  0  0  0  0  0
    1.5214   -3.7328    6.8687 O   0  0  0  0  0  0  0  0  0  0  0  0
    4.9668   -1.1456   -3.2959 H   0  0  0  0  0  0  0  0  0  0  0  0
    5.2565   -0.2516   -1.8505 H   0  0  0  0  0  0  0  0  0  0  0  0
    3.5991   -0.4882   -2.4226 H   0  0  0  0  0  0  0  0  0  0  0  0
    4.1715   -4.2036   -2.4701 H   0  0  0  0  0  0  0  0  0  0  0  0
    3.7765   -2.8881   -3.4927 H   0  0  0  0  0  0  0  0  0  0  0  0
    2.6653   -3.3017   -2.2192 H   0  0  0  0  0  0  0  0  0  0  0  0
    6.3388   -3.1137   -2.2092 H   0  0  0  0  0  0  0  0  0  0  0  0
    6.5045   -1.6739    0.1661 H   0  0  0  0  0  0  0  0  0  0  0  0
    5.5676   -4.9216   -0.8137 H   0  0  0  0  0  0  0  0  0  0  0  0
    7.0159   -4.3055   -0.1077 H   0  0  0  0  0  0  0  0  0  0  0  0
    5.2994   -4.7327    1.6299 H   0  0  0  0  0  0  0  0  0  0  0  0
    5.7865   -3.0622    1.5746 H   0  0  0  0  0  0  0  0  0  0  0  0
    1.9481   -4.3558   -0.0114 H   0  0  0  0  0  0  0  0  0  0  0  0
    2.9760   -5.4812    0.8860 H   0  0  0  0  0  0  0  0  0  0  0  0
    3.4249   -5.0059   -0.6787 H   0  0  0  0  0  0  0  0  0  0  0  0
    2.1296   -2.8179    1.7743 H   0  0  0  0  0  0  0  0  0  0  0  0
    1.7882   -4.8795    2.5553 H   0  0  0  0  0  0  0  0  0  0  0  0
    3.2352   -4.9044    3.4953 H   0  0  0  0  0  0  0  0  0  0  0  0
    0.7927   -4.5064    4.6036 H   0  0  0  0  0  0  0  0  0  0  0  0
    5.4680   -1.8390    4.5353 H   0  0  0  0  0  0  0  0  0  0  0  0
    4.2184    0.0401    5.7664 H   0  0  0  0  0  0  0  0  0  0  0  0
    4.5243    0.5525    4.0907 H   0  0  0  0  0  0  0  0  0  0  0  0
    1.9793    0.3137    4.5182 H   0  0  0  0  0  0  0  0  0  0  0  0
    1.7953   -1.1094    2.5253 H   0  0  0  0  0  0  0  0  0  0  0  0
    2.3320    0.4564    1.3032 H   0  0  0  0  0  0  0  0  0  0  0  0
    3.8059    0.8508    2.1133 H   0  0  0  0  0  0  0  0  0  0  0  0
    4.0879    0.0830   -0.1338 H   0  0  0  0  0  0  0  0  0  0  0  0
    5.1198   -0.7482    0.9490 H   0  0  0  0  0  0  0  0  0  0  0  0
    2.6423   -1.9619   -0.3473 H   0  0  0  0  0  0  0  0  0  0  0  0
    4.1500   -2.8928    3.4344 H   0  0  0  0  0  0  0  0  0  0  0  0
    3.1181   -4.0608    5.7283 H   0  0  0  0  0  0  0  0  0  0  0  0
    2.1620   -4.0356    7.4931 H   0  0  0  0  0  0  0  0  0  0  0  0
  1  2  1  0
  1 27  1  0
  1 28  1  0
  1 29  1  0
  2 23  1  0
  2  3  1  0
  2  4  1  0
  3 30  1  0
  3 31  1  0
  3 32  1  0
  4  5  1  0
  4  6  1  0
  4 33  1  6
  5 34  1  0
  6  7  1  0
  6 35  1  0
  6 36  1  0
  7  8  1  0
  7 37  1  0
  7 38  1  0
  8 23  1  0
  8  9  1  6
  8 10  1  0
  9 39  1  0
  9 40  1  0
  9 41  1  0
 10 24  1  0
 10 11  1  0
 10 42  1  6
 11 12  1  0
 11 43  1  0
 11 44  1  0
 12 25  1  0
 12 13  1  0
 12 45  1  1
 13 14  2  0
 13 15  1  0
 15 19  1  0
 15 16  1  6
 15 25  1  0
 16 17  1  0
 17 24  1  0
 17 18  1  0
 17 46  1  6
 18 19  1  0
 18 47  1  0
 18 48  1  0
 19 20  1  0
 19 49  1  6
 20 21  1  0
 20 24  1  0
 20 50  1  6
 21 22  1  0
 21 51  1  0
 21 52  1  0
 22 23  1  0
 22 53  1  0
 22 54  1  0
 23 55  1  6
 24 56  1  6
 25 26  1  0
 25 57  1  1
 26 58  1  0
M  END
>  <i_m_ct_stereo_status>  (63) 
1

>  <s_m_source_file>  (63) 
/var/tmp/pbs.5076255.sched01/tmp6mkrr40i/0ze8ciewu.sdf

>  <i_m_source_file_index>  (63) 
33

>  <i_lp_mmshare_version>  (63) 
48012

>  <i_f3d_flags>  (63) 
0

>  <s_epik_input>  (63) 
W0NIMl0xW0NIMl1bQ0BIXShbT0hdKUMoW0NIM10pKFtDSDNdKVtDQEhdKFtDSDJdW0NIMl0yKVtDQF0xKFtDSDNdKVtDQEhdKFtDQEBIXShbQ0BIXShPMylbQ0gyXTQpW0NASF0yW0NASF00W0NAXTM1NilbQ0gyXVtDQEhdKEM1PU8pW0NAQEhdNltPSF0=

>  <s_epik_cmdline>  (63) 
J2VwaWtfcHl0aG9uJywgJy1waHQnLCAnMi4wJywgJy1waCcsICc3LjAnLCAnLXRuJywgJzgnLCAnLW1hJywgJzIwMCcsICctaW1hZScsICc8aW5maWxlLm1hZT4nLCAnLW9tYWUnLCAnPG91dGZpbGUubWFlPic=

>  <r_lp_tautomer_probability>  (63) 
1

>  <r_epik_Ionization_Penalty>  (63) 
3.27569e-06

>  <r_epik_Ionization_Penalty_Charging>  (63) 
0

>  <r_epik_Ionization_Penalty_Neutral>  (63) 
3.27569e-06

>  <r_epik_State_Penalty>  (63) 
-0

>  <r_epik_Charging_Adjusted_Penalty>  (63) 
0

>  <i_epik_Tot_Q>  (63) 
0

>  <i_epik_Tot_abs_Q>  (63) 
0

>  <s_lp_Force_Field>  (63) 
OPLS3e

>  <r_lp_Energy>  (63) 
293.65

>  <b_lp_Chiralities_Consistent>  (63) 
1

>  <s_lp_Variant>  (63) 
24:0-2

>  <s_i_glide_gridfile>  (63) 
pfpi4k_grid

>  <i_i_glide_lignum>  (63) 
33

>  <i_i_glide_rotatable_bonds>  (63) 
2

>  <r_i_docking_score>  (63) 
-2.96635

>  <r_i_glide_ligand_efficiency>  (63) 
-0.114091

>  <r_i_glide_ligand_efficiency_sa>  (63) 
-0.337993

>  <r_i_glide_ligand_efficiency_ln>  (63) 
-0.696639

>  <r_i_glide_gscore>  (63) 
-2.96635

>  <r_i_glide_lipo>  (63) 
-0.192959

>  <r_i_glide_hbond>  (63) 
-0.16

>  <r_i_glide_metal>  (63) 
-0

>  <r_i_glide_rewards>  (63) 
-0.959631

>  <r_i_glide_evdw>  (63) 
-24.6614

>  <r_i_glide_ecoul>  (63) 
-2.80462

>  <r_i_glide_erotb>  (63) 
0

>  <r_i_glide_esite>  (63) 
0

>  <r_i_glide_emodel>  (63) 
-32.2011

>  <r_i_glide_energy>  (63) 
-27.4661

>  <r_i_glide_einternal>  (63) 
1.31332

>  <r_i_glide_intrahb_reward>  (63) 
-0

>  <i_i_glide_confnum>  (63) 
2

>  <i_i_glide_posenum>  (63) 
39

>  <r_i_glide_eff_state_penalty>  (63) 
0

>  <ligand_id>  (63) 
24

>  <original_smiles>  (63) 
CC1(C)C(O)CCC2(C)C3CC4C(=O)C5(OC6CC5C(CCC12)C63)C4O

>  <smiles>  (63) 
[H]OC1([H])C2([H])C(=O)C13OC1([H])C([H])([H])C3([H])C3([H])C([H])([H])C([H])([H])C4([H])C(C([H])([H])[H])(C([H])([H])[H])C([H])(O[H])C([H])([H])C([H])([H])C4(C([H])([H])[H])C([H])(C2([H])[H])C13[H]

$$$$
24:1:1
     RDKit          3D

 58 63  0  0  1  0  0  0  0  0999 V2000
    4.5944   -0.9743   -2.2979 C   0  0  0  0  0  0  0  0  0  0  0  0
    4.4413   -2.2752   -1.4645 C   0  0  0  0  0  0  0  0  0  0  0  0
    3.6328   -3.1688   -2.4442 C   0  0  0  0  0  0  0  0  0  0  0  0
    5.8552   -2.9067   -1.2453 C   0  0  1  0  0  0  0  0  0  0  0  0
    6.7986   -1.9859   -0.7209 O   0  0  0  0  0  0  0  0  0  0  0  0
    5.8629   -4.1346   -0.3188 C   0  0  0  0  0  0  0  0  0  0  0  0
    5.1573   -3.8804    1.0186 C   0  0  0  0  0  0  0  0  0  0  0  0
    3.6978   -3.3987    0.8457 C   0  0  1  0  0  0  0  0  0  0  0  0
    2.8597   -4.5644    0.2398 C   0  0  0  0  0  0  0  0  0  0  0  0
    3.0316   -3.0849    2.2303 C   0  0  1  0  0  0  0  0  0  0  0  0
    2.3608   -4.1615    3.1737 C   0  0  0  0  0  0  0  0  0  0  0  0
    1.5468   -3.6772    4.4230 C   0  0  2  0  0  0  0  0  0  0  0  0
    1.0576   -2.2261    4.5086 C   0  0  0  0  0  0  0  0  0  0  0  0
   -0.0079   -1.6978    4.1709 O   0  0  0  0  0  0  0  0  0  0  0  0
    2.2805   -1.6837    5.3973 C   0  0  1  0  0  0  0  0  0  0  0  0
    3.6442   -2.1669    5.3564 O   0  0  0  0  0  0  0  0  0  0  0  0
    4.4729   -1.6375    4.3517 C   0  0  2  0  0  0  0  0  0  0  0  0
    4.1811   -0.2120    4.7130 C   0  0  0  0  0  0  0  0  0  0  0  0
    2.7379   -0.4906    4.4084 C   0  0  1  0  0  0  0  0  0  0  0  0
    2.8713   -0.8677    2.9048 C   0  0  1  0  0  0  0  0  0  0  0  0
    3.3320    0.0421    1.7508 C   0  0  0  0  0  0  0  0  0  0  0  0
    4.1451   -0.6950    0.6165 C   0  0  0  0  0  0  0  0  0  0  0  0
    3.6771   -2.0694   -0.0741 C   0  0  1  0  0  0  0  0  0  0  0  0
    3.9120   -1.9742    2.9172 C   0  0  2  0  0  0  0  0  0  0  0  0
    2.2342   -3.2987    5.7289 C   0  0  1  0  0  0  0  0  0  0  0  0
    1.5147   -3.6111    6.9082 O   0  0  0  0  0  0  0  0  0  0  0  0
    4.9816   -1.1815   -3.2943 H   0  0  0  0  0  0  0  0  0  0  0  0
    5.3032   -0.2710   -1.8621 H   0  0  0  0  0  0  0  0  0  0  0  0
    3.6356   -0.4674   -2.4232 H   0  0  0  0  0  0  0  0  0  0  0  0
    4.0430   -4.1745   -2.4680 H   0  0  0  0  0  0  0  0  0  0  0  0
    3.6785   -2.8491   -3.4836 H   0  0  0  0  0  0  0  0  0  0  0  0
    2.5733   -3.2224   -2.1933 H   0  0  0  0  0  0  0  0  0  0  0  0
    6.2539   -3.2129   -2.2137 H   0  0  0  0  0  0  0  0  0  0  0  0
    7.5576   -2.4760   -0.4578 H   0  0  0  0  0  0  0  0  0  0  0  0
    5.4145   -4.9855   -0.8276 H   0  0  0  0  0  0  0  0  0  0  0  0
    6.8888   -4.4464   -0.1284 H   0  0  0  0  0  0  0  0  0  0  0  0
    5.1834   -4.7854    1.6249 H   0  0  0  0  0  0  0  0  0  0  0  0
    5.7462   -3.1370    1.5593 H   0  0  0  0  0  0  0  0  0  0  0  0
    1.8395   -4.2579    0.0152 H   0  0  0  0  0  0  0  0  0  0  0  0
    2.8240   -5.4261    0.9027 H   0  0  0  0  0  0  0  0  0  0  0  0
    3.2766   -4.9683   -0.6694 H   0  0  0  0  0  0  0  0  0  0  0  0
    2.1037   -2.7296    1.7983 H   0  0  0  0  0  0  0  0  0  0  0  0
    1.6767   -4.7743    2.5847 H   0  0  0  0  0  0  0  0  0  0  0  0
    3.1377   -4.8655    3.5036 H   0  0  0  0  0  0  0  0  0  0  0  0
    0.7331   -4.3653    4.6478 H   0  0  0  0  0  0  0  0  0  0  0  0
    5.5160   -1.9058    4.5206 H   0  0  0  0  0  0  0  0  0  0  0  0
    4.3621    0.0265    5.7663 H   0  0  0  0  0  0  0  0  0  0  0  0
    4.6767    0.5288    4.0898 H   0  0  0  0  0  0  0  0  0  0  0  0
    2.1296    0.4038    4.5385 H   0  0  0  0  0  0  0  0  0  0  0  0
    1.8550   -1.0086    2.5524 H   0  0  0  0  0  0  0  0  0  0  0  0
    2.4560    0.5311    1.3223 H   0  0  0  0  0  0  0  0  0  0  0  0
    3.9468    0.8582    2.1217 H   0  0  0  0  0  0  0  0  0  0  0  0
    4.1778    0.0865   -0.1324 H   0  0  0  0  0  0  0  0  0  0  0  0
    5.1796   -0.8043    0.9375 H   0  0  0  0  0  0  0  0  0  0  0  0
    2.6315   -1.8927   -0.3249 H   0  0  0  0  0  0  0  0  0  0  0  0
    4.1423   -2.8974    3.4336 H   0  0  0  0  0  0  0  0  0  0  0  0
    3.0861   -4.0098    5.7521 H   0  0  0  0  0  0  0  0  0  0  0  0
    2.1553   -3.9016    7.5345 H   0  0  0  0  0  0  0  0  0  0  0  0
  1  2  1  0
  1 27  1  0
  1 28  1  0
  1 29  1  0
  2 23  1  0
  2  3  1  0
  2  4  1  0
  3 30  1  0
  3 31  1  0
  3 32  1  0
  4  5  1  0
  4  6  1  0
  4 33  1  6
  5 34  1  0
  6  7  1  0
  6 35  1  0
  6 36  1  0
  7  8  1  0
  7 37  1  0
  7 38  1  0
  8 23  1  0
  8  9  1  6
  8 10  1  0
  9 39  1  0
  9 40  1  0
  9 41  1  0
 10 24  1  0
 10 11  1  0
 10 42  1  6
 11 12  1  0
 11 43  1  0
 11 44  1  0
 12 25  1  0
 12 13  1  0
 12 45  1  1
 13 14  2  0
 13 15  1  0
 15 19  1  0
 15 16  1  6
 15 25  1  0
 16 17  1  0
 17 24  1  0
 17 18  1  0
 17 46  1  6
 18 19  1  0
 18 47  1  0
 18 48  1  0
 19 20  1  0
 19 49  1  6
 20 21  1  0
 20 24  1  0
 20 50  1  6
 21 22  1  0
 21 51  1  0
 21 52  1  0
 22 23  1  0
 22 53  1  0
 22 54  1  0
 23 55  1  6
 24 56  1  6
 25 26  1  0
 25 57  1  1
 26 58  1  0
M  END
>  <i_m_ct_stereo_status>  (64) 
1

>  <s_m_source_file>  (64) 
/var/tmp/pbs.5076255.sched01/tmp6mkrr40i/0ze8ciewu.sdf

>  <i_m_source_file_index>  (64) 
33

>  <i_lp_mmshare_version>  (64) 
48012

>  <i_f3d_flags>  (64) 
0

>  <s_epik_input>  (64) 
W0NIMl0xW0NIMl1bQ0BIXShbT0hdKUMoW0NIM10pKFtDSDNdKVtDQEhdKFtDSDJdW0NIMl0yKVtDQF0xKFtDSDNdKVtDQEhdKFtDQEBIXShbQ0BIXShPMylbQ0gyXTQpW0NASF0yW0NASF00W0NAXTM1NilbQ0gyXVtDQEhdKEM1PU8pW0NAQEhdNltPSF0=

>  <s_epik_cmdline>  (64) 
J2VwaWtfcHl0aG9uJywgJy1waHQnLCAnMi4wJywgJy1waCcsICc3LjAnLCAnLXRuJywgJzgnLCAnLW1hJywgJzIwMCcsICctaW1hZScsICc8aW5maWxlLm1hZT4nLCAnLW9tYWUnLCAnPG91dGZpbGUubWFlPic=

>  <r_lp_tautomer_probability>  (64) 
1

>  <r_epik_Ionization_Penalty>  (64) 
3.27569e-06

>  <r_epik_Ionization_Penalty_Charging>  (64) 
0

>  <r_epik_Ionization_Penalty_Neutral>  (64) 
3.27569e-06

>  <r_epik_State_Penalty>  (64) 
-0

>  <r_epik_Charging_Adjusted_Penalty>  (64) 
0

>  <i_epik_Tot_Q>  (64) 
0

>  <i_epik_Tot_abs_Q>  (64) 
0

>  <s_lp_Force_Field>  (64) 
OPLS3e

>  <r_lp_Energy>  (64) 
293.65

>  <b_lp_Chiralities_Consistent>  (64) 
1

>  <s_lp_Variant>  (64) 
24:0-2

>  <s_i_glide_gridfile>  (64) 
pfpi4k_grid

>  <i_i_glide_lignum>  (64) 
33

>  <i_i_glide_rotatable_bonds>  (64) 
2

>  <r_i_docking_score>  (64) 
-2.8907

>  <r_i_glide_ligand_efficiency>  (64) 
-0.111181

>  <r_i_glide_ligand_efficiency_sa>  (64) 
-0.329373

>  <r_i_glide_ligand_efficiency_ln>  (64) 
-0.678871

>  <r_i_glide_gscore>  (64) 
-2.8907

>  <r_i_glide_lipo>  (64) 
-0.233602

>  <r_i_glide_hbond>  (64) 
-0.16

>  <r_i_glide_metal>  (64) 
-0

>  <r_i_glide_rewards>  (64) 
-0.955838

>  <r_i_glide_evdw>  (64) 
-24.8817

>  <r_i_glide_ecoul>  (64) 
-1.98118

>  <r_i_glide_erotb>  (64) 
0

>  <r_i_glide_esite>  (64) 
0

>  <r_i_glide_emodel>  (64) 
-31.2345

>  <r_i_glide_energy>  (64) 
-26.8628

>  <r_i_glide_einternal>  (64) 
1.79256

>  <r_i_glide_intrahb_reward>  (64) 
-0

>  <i_i_glide_confnum>  (64) 
1

>  <i_i_glide_posenum>  (64) 
14

>  <r_i_glide_eff_state_penalty>  (64) 
0

>  <ligand_id>  (64) 
24

>  <original_smiles>  (64) 
CC1(C)C(O)CCC2(C)C3CC4C(=O)C5(OC6CC5C(CCC12)C63)C4O

>  <smiles>  (64) 
[H]OC1([H])C2([H])C(=O)C13OC1([H])C([H])([H])C3([H])C3([H])C([H])([H])C([H])([H])C4([H])C(C([H])([H])[H])(C([H])([H])[H])C([H])(O[H])C([H])([H])C([H])([H])C4(C([H])([H])[H])C([H])(C2([H])[H])C13[H]

$$$$
24:1:2
     RDKit          3D

 58 63  0  0  1  0  0  0  0  0999 V2000
    3.8527   -0.9819   -2.8642 C   0  0  0  0  0  0  0  0  0  0  0  0
    3.8113   -2.2968   -2.0353 C   0  0  0  0  0  0  0  0  0  0  0  0
    2.7289   -3.0657   -2.8396 C   0  0  0  0  0  0  0  0  0  0  0  0
    5.1671   -3.0437   -2.1402 C   0  0  1  0  0  0  0  0  0  0  0  0
    6.1933   -2.1358   -1.8041 O   0  0  0  0  0  0  0  0  0  0  0  0
    5.2638   -4.2491   -1.1939 C   0  0  0  0  0  0  0  0  0  0  0  0
    4.9225   -4.0111    0.2533 C   0  0  0  0  0  0  0  0  0  0  0  0
    3.5263   -3.4483    0.4109 C   0  0  1  0  0  0  0  0  0  0  0  0
    2.4996   -4.5240   -0.0176 C   0  0  0  0  0  0  0  0  0  0  0  0
    3.1357   -3.1090    1.8772 C   0  0  1  0  0  0  0  0  0  0  0  0
    2.6390   -4.1718    2.9268 C   0  0  0  0  0  0  0  0  0  0  0  0
    2.1600   -3.6684    4.3334 C   0  0  2  0  0  0  0  0  0  0  0  0
    1.7676   -2.2018    4.5184 C   0  0  0  0  0  0  0  0  0  0  0  0
    0.6932   -1.6157    4.3961 O   0  0  0  0  0  0  0  0  0  0  0  0
    3.1895   -1.7430    5.1199 C   0  0  1  0  0  0  0  0  0  0  0  0
    4.4632   -2.3203    4.7675 O   0  0  0  0  0  0  0  0  0  0  0  0
    5.0716   -1.8092    3.6279 C   0  0  2  0  0  0  0  0  0  0  0  0
    4.9827   -0.3676    4.0586 C   0  0  0  0  0  0  0  0  0  0  0  0
    3.4955   -0.5435    4.0734 C   0  0  1  0  0  0  0  0  0  0  0  0
    3.2695   -0.8984    2.5805 C   0  0  1  0  0  0  0  0  0  0  0  0
    3.5468   -0.0271    1.3557 C   0  0  0  0  0  0  0  0  0  0  0  0
    4.1581   -0.8105    0.1135 C   0  0  0  0  0  0  0  0  0  0  0  0
    3.4504   -2.1209   -0.4801 C   0  0  1  0  0  0  0  0  0  0  0  0
    4.2030   -2.0681    2.3626 C   0  0  2  0  0  0  0  0  0  0  0  0
    3.1271   -3.3447    5.4488 C   0  0  1  0  0  0  0  0  0  0  0  0
    2.6470   -3.6213    6.7482 O   0  0  0  0  0  0  0  0  0  0  0  0
    4.0144   -1.1861   -3.9285 H   0  0  0  0  0  0  0  0  0  0  0  0
    4.6613   -0.2973   -2.6054 H   0  0  0  0  0  0  0  0  0  0  0  0
    2.9034   -0.4356   -2.7897 H   0  0  0  0  0  0  0  0  0  0  0  0
    3.0775   -4.0670   -3.0110 H   0  0  0  0  0  0  0  0  0  0  0  0
    2.5642   -2.7094   -3.8641 H   0  0  0  0  0  0  0  0  0  0  0  0
    1.7557   -3.0886   -2.3529 H   0  0  0  0  0  0  0  0  0  0  0  0
    5.3309   -3.3495   -3.1746 H   0  0  0  0  0  0  0  0  0  0  0  0
    5.7490   -1.3620   -1.5315 H   0  0  0  0  0  0  0  0  0  0  0  0
    4.6514   -5.0460   -1.6173 H   0  0  0  0  0  0  0  0  0  0  0  0
    6.2837   -4.5875   -1.0923 H   0  0  0  0  0  0  0  0  0  0  0  0
    5.0119   -4.9410    0.8186 H   0  0  0  0  0  0  0  0  0  0  0  0
    5.6548   -3.3107    0.6491 H   0  0  0  0  0  0  0  0  0  0  0  0
    1.4888   -4.1496   -0.0739 H   0  0  0  0  0  0  0  0  0  0  0  0
    2.5395   -5.4213    0.6035 H   0  0  0  0  0  0  0  0  0  0  0  0
    2.6962   -4.8363   -1.0103 H   0  0  0  0  0  0  0  0  0  0  0  0
    2.1678   -2.6824    1.6434 H   0  0  0  0  0  0  0  0  0  0  0  0
    1.8013   -4.7180    2.4901 H   0  0  0  0  0  0  0  0  0  0  0  0
    3.4265   -4.9164    3.0541 H   0  0  0  0  0  0  0  0  0  0  0  0
    1.3921   -4.3267    4.7462 H   0  0  0  0  0  0  0  0  0  0  0  0
    6.1000   -2.1618    3.5092 H   0  0  0  0  0  0  0  0  0  0  0  0
    5.4115   -0.1908    5.0472 H   0  0  0  0  0  0  0  0  0  0  0  0
    5.3861    0.3482    3.3469 H   0  0  0  0  0  0  0  0  0  0  0  0
    2.9885    0.3949    4.3439 H   0  0  0  0  0  0  0  0  0  0  0  0
    2.1877   -0.9655    2.4517 H   0  0  0  0  0  0  0  0  0  0  0  0
    2.6246    0.4991    1.0958 H   0  0  0  0  0  0  0  0  0  0  0  0
    4.2479    0.7628    1.5974 H   0  0  0  0  0  0  0  0  0  0  0  0
    4.1589   -0.0517   -0.6390 H   0  0  0  0  0  0  0  0  0  0  0  0
    5.2307   -0.9818    0.2847 H   0  0  0  0  0  0  0  0  0  0  0  0
    2.3946   -1.9424   -0.4268 H   0  0  0  0  0  0  0  0  0  0  0  0
    4.4883   -3.0221    2.7855 H   0  0  0  0  0  0  0  0  0  0  0  0
    3.9163   -4.1302    5.2850 H   0  0  0  0  0  0  0  0  0  0  0  0
    3.3899   -3.9798    7.2318 H   0  0  0  0  0  0  0  0  0  0  0  0
  1  2  1  0
  1 27  1  0
  1 28  1  0
  1 29  1  0
  2 23  1  0
  2  3  1  0
  2  4  1  0
  3 30  1  0
  3 31  1  0
  3 32  1  0
  4  5  1  0
  4  6  1  0
  4 33  1  6
  5 34  1  0
  6  7  1  0
  6 35  1  0
  6 36  1  0
  7  8  1  0
  7 37  1  0
  7 38  1  0
  8 23  1  0
  8  9  1  6
  8 10  1  0
  9 39  1  0
  9 40  1  0
  9 41  1  0
 10 24  1  0
 10 11  1  0
 10 42  1  6
 11 12  1  0
 11 43  1  0
 11 44  1  0
 12 25  1  0
 12 13  1  0
 12 45  1  1
 13 14  2  0
 13 15  1  0
 15 19  1  0
 15 16  1  6
 15 25  1  0
 16 17  1  0
 17 24  1  0
 17 18  1  0
 17 46  1  6
 18 19  1  0
 18 47  1  0
 18 48  1  0
 19 20  1  0
 19 49  1  1
 20 21  1  0
 20 24  1  0
 20 50  1  1
 21 22  1  0
 21 51  1  0
 21 52  1  0
 22 23  1  0
 22 53  1  0
 22 54  1  0
 23 55  1  6
 24 56  1  6
 25 26  1  0
 25 57  1  6
 26 58  1  0
M  END
>  <i_m_ct_stereo_status>  (65) 
1

>  <s_m_source_file>  (65) 
/var/tmp/pbs.5076255.sched01/tmp6mkrr40i/0ze8ciewu.sdf

>  <i_m_source_file_index>  (65) 
33

>  <i_lp_mmshare_version>  (65) 
48012

>  <i_f3d_flags>  (65) 
0

>  <s_epik_input>  (65) 
W0NIMl0xW0NIMl1bQ0BIXShbT0hdKUMoW0NIM10pKFtDSDNdKVtDQEhdKFtDSDJdW0NIMl0yKVtDQF0xKFtDSDNdKVtDQEhdKFtDQEBIXShbQ0BIXShPMylbQ0gyXTQpW0NASF0yW0NASF00W0NAXTM1NilbQ0gyXVtDQEhdKEM1PU8pW0NAQEhdNltPSF0=

>  <s_epik_cmdline>  (65) 
J2VwaWtfcHl0aG9uJywgJy1waHQnLCAnMi4wJywgJy1waCcsICc3LjAnLCAnLXRuJywgJzgnLCAnLW1hJywgJzIwMCcsICctaW1hZScsICc8aW5maWxlLm1hZT4nLCAnLW9tYWUnLCAnPG91dGZpbGUubWFlPic=

>  <r_lp_tautomer_probability>  (65) 
1

>  <r_epik_Ionization_Penalty>  (65) 
3.27569e-06

>  <r_epik_Ionization_Penalty_Charging>  (65) 
0

>  <r_epik_Ionization_Penalty_Neutral>  (65) 
3.27569e-06

>  <r_epik_State_Penalty>  (65) 
-0

>  <r_epik_Charging_Adjusted_Penalty>  (65) 
0

>  <i_epik_Tot_Q>  (65) 
0

>  <i_epik_Tot_abs_Q>  (65) 
0

>  <s_lp_Force_Field>  (65) 
OPLS3e

>  <r_lp_Energy>  (65) 
293.65

>  <b_lp_Chiralities_Consistent>  (65) 
1

>  <s_lp_Variant>  (65) 
24:0-2

>  <s_i_glide_gridfile>  (65) 
pfpi4k_grid

>  <i_i_glide_lignum>  (65) 
33

>  <i_i_glide_rotatable_bonds>  (65) 
2

>  <r_i_docking_score>  (65) 
-2.49593

>  <r_i_glide_ligand_efficiency>  (65) 
-0.0959975

>  <r_i_glide_ligand_efficiency_sa>  (65) 
-0.284392

>  <r_i_glide_ligand_efficiency_ln>  (65) 
-0.586162

>  <r_i_glide_gscore>  (65) 
-2.49593

>  <r_i_glide_lipo>  (65) 
-0.405432

>  <r_i_glide_hbond>  (65) 
-0.0942797

>  <r_i_glide_metal>  (65) 
-0

>  <r_i_glide_rewards>  (65) 
-0.951224

>  <r_i_glide_evdw>  (65) 
-15.6075

>  <r_i_glide_ecoul>  (65) 
-1.76417

>  <r_i_glide_erotb>  (65) 
0

>  <r_i_glide_esite>  (65) 
0

>  <r_i_glide_emodel>  (65) 
-19.7681

>  <r_i_glide_energy>  (65) 
-17.3716

>  <r_i_glide_einternal>  (65) 
2.71695

>  <r_i_glide_intrahb_reward>  (65) 
-0

>  <i_i_glide_confnum>  (65) 
2

>  <i_i_glide_posenum>  (65) 
18

>  <r_i_glide_eff_state_penalty>  (65) 
0

>  <ligand_id>  (65) 
24

>  <original_smiles>  (65) 
CC1(C)C(O)CCC2(C)C3CC4C(=O)C5(OC6CC5C(CCC12)C63)C4O

>  <smiles>  (65) 
[H]OC1([H])C2([H])C(=O)C13OC1([H])C([H])([H])C3([H])C3([H])C([H])([H])C([H])([H])C4([H])C(C([H])([H])[H])(C([H])([H])[H])C([H])(O[H])C([H])([H])C([H])([H])C4(C([H])([H])[H])C([H])(C2([H])[H])C13[H]

$$$$
25:0:0
     RDKit          3D

 65 70  0  0  1  0  0  0  0  0999 V2000
    3.5417   -1.5588    4.4101 C   0  0  0  0  0  0  0  0  0  0  0  0
    4.4110   -1.6081    3.1401 C   0  0  0  0  0  0  0  0  0  0  0  0
    5.5159   -0.5499    3.4140 C   0  0  0  0  0  0  0  0  0  0  0  0
    5.1950   -2.9744    2.9379 C   0  0  1  0  0  0  0  0  0  0  0  0
    4.7303   -4.4680    3.0554 C   0  0  0  0  0  0  0  0  0  0  0  0
    3.7959   -4.9828    2.1561 C   0  0  0  0  0  0  0  0  0  0  0  0
    3.0924   -3.7644    2.2299 C   0  0  1  0  0  0  0  0  0  0  0  0
    2.1648   -4.5883    3.2189 C   0  0  0  0  0  0  0  0  0  0  0  0
    2.0152   -4.3499    4.4246 O   0  0  0  0  0  0  0  0  0  0  0  0
    1.3859   -5.7067    2.4538 C   0  0  0  0  0  0  0  0  0  0  0  0
    2.2060   -6.1362    1.1271 C   0  0  0  0  0  0  0  0  0  0  0  0
    3.2797   -5.0023    0.5761 C   0  0  2  0  0  0  0  0  0  0  0  0
    1.9835   -4.8474    0.0166 O   0  0  0  0  0  0  0  0  0  0  0  0
    3.3550   -3.4043   -0.1816 C   0  0  2  0  0  0  0  0  0  0  0  0
    3.7492   -3.4557   -1.6824 C   0  0  0  0  0  0  0  0  0  0  0  0
    3.8186   -2.0890   -2.3750 C   0  0  0  0  0  0  0  0  0  0  0  0
    4.5513   -1.0191   -1.5482 C   0  0  0  0  0  0  0  0  0  0  0  0
    5.2870   -1.6421   -0.3622 C   0  0  1  0  0  0  0  0  0  0  0  0
    6.1515   -0.6713    0.1559 O   0  0  0  0  0  0  0  0  0  0  0  0
    4.2286   -2.2621    0.6373 C   0  0  1  0  0  0  0  0  0  0  0  0
    3.7239   -1.2273    1.7359 C   0  0  1  0  0  0  0  0  0  0  0  0
    2.2167   -0.8670    1.7325 C   0  0  0  0  0  0  0  0  0  0  0  0
    1.8407    0.2056    2.6795 N   0  0  0  0  0  0  0  0  0  0  0  0
    2.3169    1.5610    2.3542 C   0  0  0  0  0  0  0  0  0  0  0  0
    1.5272    2.4682    3.2923 C   0  0  0  0  0  0  0  0  0  0  0  0
    0.2565    1.6741    3.6489 C   0  0  0  0  0  0  0  0  0  0  0  0
    0.3890    0.3494    2.8951 C   0  0  0  0  0  0  0  0  0  0  0  0
    4.6219   -3.2217    1.6605 C   0  0  1  0  0  0  0  0  0  0  0  0
    5.7157   -3.9165    0.9049 O   0  0  0  0  0  0  0  0  0  0  0  0
    4.0303   -2.0427    5.2652 H   0  0  0  0  0  0  0  0  0  0  0  0
    2.5572   -2.0016    4.2827 H   0  0  0  0  0  0  0  0  0  0  0  0
    3.3715   -0.5217    4.7171 H   0  0  0  0  0  0  0  0  0  0  0  0
    6.3158   -0.6217    2.6710 H   0  0  0  0  0  0  0  0  0  0  0  0
    5.9653   -0.6960    4.4011 H   0  0  0  0  0  0  0  0  0  0  0  0
    5.1157    0.4713    3.3909 H   0  0  0  0  0  0  0  0  0  0  0  0
    6.2664   -2.8457    2.8586 H   0  0  0  0  0  0  0  0  0  0  0  0
    5.2042   -5.0756    3.7944 H   0  0  0  0  0  0  0  0  0  0  0  0
    2.1913   -3.4556    1.6977 H   0  0  0  0  0  0  0  0  0  0  0  0
    1.2178   -6.5724    3.1016 H   0  0  0  0  0  0  0  0  0  0  0  0
    0.4198   -5.2804    2.1950 H   0  0  0  0  0  0  0  0  0  0  0  0
    2.8419   -6.9653    1.4525 H   0  0  0  0  0  0  0  0  0  0  0  0
    1.5757   -6.7941    0.4711 H   0  0  0  0  0  0  0  0  0  0  0  0
    2.0771   -4.8639   -0.9272 H   0  0  0  0  0  0  0  0  0  0  0  0
    2.4132   -2.8124   -0.2396 H   0  0  0  0  0  0  0  0  0  0  0  0
    4.7054   -3.9743   -1.7851 H   0  0  0  0  0  0  0  0  0  0  0  0
    2.9766   -3.9933   -2.2236 H   0  0  0  0  0  0  0  0  0  0  0  0
    4.3270   -2.2240   -3.3290 H   0  0  0  0  0  0  0  0  0  0  0  0
    2.8062   -1.7471   -2.6250 H   0  0  0  0  0  0  0  0  0  0  0  0
    5.1934   -0.4379   -2.2155 H   0  0  0  0  0  0  0  0  0  0  0  0
    3.8318   -0.3160   -1.1486 H   0  0  0  0  0  0  0  0  0  0  0  0
    5.9607   -2.3768   -0.8005 H   0  0  0  0  0  0  0  0  0  0  0  0
    5.6529    0.1143    0.3323 H   0  0  0  0  0  0  0  0  0  0  0  0
    4.1478   -0.2726    1.4518 H   0  0  0  0  0  0  0  0  0  0  0  0
    2.0278   -0.4989    0.7398 H   0  0  0  0  0  0  0  0  0  0  0  0
    1.5330   -1.6978    1.8971 H   0  0  0  0  0  0  0  0  0  0  0  0
    3.3923    1.6762    2.4922 H   0  0  0  0  0  0  0  0  0  0  0  0
    2.0901    1.8134    1.3128 H   0  0  0  0  0  0  0  0  0  0  0  0
    2.1065    2.6680    4.1944 H   0  0  0  0  0  0  0  0  0  0  0  0
    1.3115    3.4229    2.8190 H   0  0  0  0  0  0  0  0  0  0  0  0
    0.2175    1.4904    4.7236 H   0  0  0  0  0  0  0  0  0  0  0  0
   -0.6593    2.1888    3.3703 H   0  0  0  0  0  0  0  0  0  0  0  0
   -0.1334    0.4015    1.9330 H   0  0  0  0  0  0  0  0  0  0  0  0
   -0.0137   -0.5009    3.4504 H   0  0  0  0  0  0  0  0  0  0  0  0
    5.3921   -4.2373    0.0750 H   0  0  0  0  0  0  0  0  0  0  0  0
    2.2197   -0.0062    3.5934 H   0  0  0  0  0  0  0  0  0  0  0  0
  1  2  1  0
  1 30  1  0
  1 31  1  0
  1 32  1  0
  2 21  1  0
  2  3  1  0
  2  4  1  0
  3 33  1  0
  3 34  1  0
  3 35  1  0
  4 28  1  0
  4  5  1  0
  4 36  1  6
  5  6  2  0
  5 37  1  0
  6 12  1  0
  6  7  1  0
  7 28  1  0
  7  8  1  0
  7 38  1  6
  8  9  2  0
  8 10  1  0
 10 11  1  0
 10 39  1  0
 10 40  1  0
 11 12  1  0
 11 41  1  0
 11 42  1  0
 12 13  1  1
 12 14  1  0
 13 43  1  0
 14 20  1  0
 14 15  1  0
 14 44  1  6
 15 16  1  0
 15 45  1  0
 15 46  1  0
 16 17  1  0
 16 47  1  0
 16 48  1  0
 17 18  1  0
 17 49  1  0
 17 50  1  0
 18 19  1  0
 18 20  1  0
 18 51  1  6
 19 52  1  0
 20 21  1  0
 20 28  1  1
 21 22  1  0
 21 53  1  6
 22 23  1  0
 22 54  1  0
 22 55  1  0
 23 27  1  0
 23 24  1  0
 23 65  1  0
 24 25  1  0
 24 56  1  0
 24 57  1  0
 25 26  1  0
 25 58  1  0
 25 59  1  0
 26 27  1  0
 26 60  1  0
 26 61  1  0
 27 62  1  0
 27 63  1  0
 28 29  1  6
 29 64  1  0
M  CHG  1  23   1
M  END
>  <i_m_ct_stereo_status>  (66) 
1

>  <s_m_source_file>  (66) 
/var/tmp/pbs.5076255.sched01/tmp6mkrr40i/0ze8ciewu.sdf

>  <i_m_source_file_index>  (66) 
34

>  <i_lp_mmshare_version>  (66) 
48012

>  <i_f3d_flags>  (66) 
0

>  <s_epik_input>  (66) 
W0NIMl0xW0NIMl1bQ0gyXVtDSDJdTjFbQ0gyXVtDQEhdMkMoW0NIM10pKFtDSDNdKVtDQEBIXShbQ0hdPTMpW0NAQF00KFtPSF0pW0NASF0oQyg9TylbQ0gyXVtDSDJdNSlDM1tDQEBdNShbT0hdKVtDQEBIXShbQ0BAXTI0NilbQ0gyXVtDSDJdW0NIMl1bQ0BIXTZbT0hd

>  <s_epik_cmdline>  (66) 
J2VwaWtfcHl0aG9uJywgJy1waHQnLCAnMi4wJywgJy1waCcsICc3LjAnLCAnLXRuJywgJzgnLCAnLW1hJywgJzIwMCcsICctaW1hZScsICc8aW5maWxlLm1hZT4nLCAnLW9tYWUnLCAnPG91dGZpbGUubWFlPic=

>  <r_lp_tautomer_probability>  (66) 
1

>  <r_epik_Ionization_Penalty>  (66) 
0.000123174

>  <r_epik_Ionization_Penalty_Charging>  (66) 
0.000122617

>  <r_epik_Ionization_Penalty_Neutral>  (66) 
5.56917e-07

>  <r_epik_State_Penalty>  (66) 
-0

>  <r_epik_Charging_Adjusted_Penalty>  (66) 
0.000122617

>  <i_epik_Tot_Q>  (66) 
1

>  <i_epik_Tot_abs_Q>  (66) 
1

>  <s_lp_Force_Field>  (66) 
OPLS3e

>  <r_lp_Energy>  (66) 
515.302

>  <b_lp_Chiralities_Consistent>  (66) 
1

>  <s_lp_Variant>  (66) 
25:0-1

>  <s_i_glide_gridfile>  (66) 
pfpi4k_grid

>  <i_i_glide_lignum>  (66) 
34

>  <i_i_glide_rotatable_bonds>  (66) 
5

>  <r_i_docking_score>  (66) 
-3.4619

>  <r_i_glide_ligand_efficiency>  (66) 
-0.119376

>  <r_i_glide_ligand_efficiency_sa>  (66) 
-0.366761

>  <r_i_glide_ligand_efficiency_ln>  (66) 
-0.792688

>  <r_i_glide_gscore>  (66) 
-3.4619

>  <r_i_glide_lipo>  (66) 
-0.332315

>  <r_i_glide_hbond>  (66) 
-0.152356

>  <r_i_glide_metal>  (66) 
-0

>  <r_i_glide_rewards>  (66) 
-0.664453

>  <r_i_glide_evdw>  (66) 
-23.1619

>  <r_i_glide_ecoul>  (66) 
-9.16831

>  <r_i_glide_erotb>  (66) 
0.242216

>  <r_i_glide_esite>  (66) 
-0.0216562

>  <r_i_glide_emodel>  (66) 
-38.7321

>  <r_i_glide_energy>  (66) 
-32.3302

>  <r_i_glide_einternal>  (66) 
1.49076

>  <r_i_glide_intrahb_reward>  (66) 
-0

>  <i_i_glide_confnum>  (66) 
5

>  <i_i_glide_posenum>  (66) 
1

>  <r_i_glide_eff_state_penalty>  (66) 
0

>  <ligand_id>  (66) 
25

>  <original_smiles>  (66) 
CC1(C)C2C=C3C4C(=O)CCC3(O)C3CCCC(O)C3(C1CN1CCCC1)C42O

>  <smiles>  (66) 
[H]OC1([H])C([H])([H])C([H])([H])C([H])([H])C2([H])C3(O[H])C4=C([H])C5([H])C(O[H])(C4([H])C(=O)C([H])([H])C3([H])[H])C12C([H])(C([H])([H])[N+]1([H])C([H])([H])C([H])([H])C([H])([H])C1([H])[H])C5(C([H])([H])[H])C([H])([H])[H]

$$$$
25:0:1
     RDKit          3D

 65 70  0  0  1  0  0  0  0  0999 V2000
    3.2805   -1.7210    4.6372 C   0  0  0  0  0  0  0  0  0  0  0  0
    4.2957   -1.7443    3.4709 C   0  0  0  0  0  0  0  0  0  0  0  0
    5.3369   -0.6629    3.8632 C   0  0  0  0  0  0  0  0  0  0  0  0
    5.1319   -3.0838    3.3277 C   0  0  1  0  0  0  0  0  0  0  0  0
    4.6916   -4.5899    3.3598 C   0  0  0  0  0  0  0  0  0  0  0  0
    3.8450   -5.1088    2.3639 C   0  0  0  0  0  0  0  0  0  0  0  0
    3.1225   -3.9204    2.4201 C   0  0  1  0  0  0  0  0  0  0  0  0
    2.1357   -4.7882    3.3059 C   0  0  0  0  0  0  0  0  0  0  0  0
    1.8868   -4.6052    4.4980 O   0  0  0  0  0  0  0  0  0  0  0  0
    1.4265   -5.8934    2.4567 C   0  0  0  0  0  0  0  0  0  0  0  0
    2.3679   -6.2731    1.1964 C   0  0  0  0  0  0  0  0  0  0  0  0
    3.4505   -5.1109    0.7523 C   0  0  2  0  0  0  0  0  0  0  0  0
    2.1735   -4.9500    0.1344 O   0  0  0  0  0  0  0  0  0  0  0  0
    3.5461   -3.5063    0.0461 C   0  0  2  0  0  0  0  0  0  0  0  0
    4.0799   -3.5391   -1.4067 C   0  0  0  0  0  0  0  0  0  0  0  0
    4.1461   -2.1547   -2.0876 C   0  0  0  0  0  0  0  0  0  0  0  0
    4.7164   -1.0585   -1.1771 C   0  0  0  0  0  0  0  0  0  0  0  0
    5.4065   -1.6644    0.0499 C   0  0  1  0  0  0  0  0  0  0  0  0
    6.1714   -0.6595    0.6711 O   0  0  0  0  0  0  0  0  0  0  0  0
    4.3236   -2.3812    0.9595 C   0  0  1  0  0  0  0  0  0  0  0  0
    3.7023   -1.3722    2.0185 C   0  0  1  0  0  0  0  0  0  0  0  0
    2.1842   -1.0740    1.9036 C   0  0  0  0  0  0  0  0  0  0  0  0
    1.7258    0.0584    2.7261 N   0  0  0  0  0  0  0  0  0  0  0  0
    2.2035    1.3968    2.3395 C   0  0  0  0  0  0  0  0  0  0  0  0
    1.3231    2.3512    3.1440 C   0  0  0  0  0  0  0  0  0  0  0  0
    0.0453    1.5585    3.4685 C   0  0  0  0  0  0  0  0  0  0  0  0
    0.2631    0.1835    2.8375 C   0  0  0  0  0  0  0  0  0  0  0  0
    4.6947   -3.3332    2.0103 C   0  0  1  0  0  0  0  0  0  0  0  0
    5.8747   -3.9461    1.3336 O   0  0  0  0  0  0  0  0  0  0  0  0
    3.6904   -2.1789    5.5349 H   0  0  0  0  0  0  0  0  0  0  0  0
    2.3386   -2.2032    4.4046 H   0  0  0  0  0  0  0  0  0  0  0  0
    3.0349   -0.6986    4.9197 H   0  0  0  0  0  0  0  0  0  0  0  0
    6.2033   -0.6677    3.1998 H   0  0  0  0  0  0  0  0  0  0  0  0
    5.7236   -0.8354    4.8731 H   0  0  0  0  0  0  0  0  0  0  0  0
    4.9244    0.3511    3.8427 H   0  0  0  0  0  0  0  0  0  0  0  0
    6.2079   -2.9661    3.4292 H   0  0  0  0  0  0  0  0  0  0  0  0
    5.0863   -5.2413    4.1292 H   0  0  0  0  0  0  0  0  0  0  0  0
    2.2728   -3.6133    1.8233 H   0  0  0  0  0  0  0  0  0  0  0  0
    1.1933   -6.7747    3.0666 H   0  0  0  0  0  0  0  0  0  0  0  0
    0.4752   -5.4793    2.1147 H   0  0  0  0  0  0  0  0  0  0  0  0
    2.9748   -7.0948    1.5893 H   0  0  0  0  0  0  0  0  0  0  0  0
    1.8081   -6.9272    0.4832 H   0  0  0  0  0  0  0  0  0  0  0  0
    2.2895   -5.0154   -0.8032 H   0  0  0  0  0  0  0  0  0  0  0  0
    2.6035   -2.9488   -0.0875 H   0  0  0  0  0  0  0  0  0  0  0  0
    5.0616   -4.0146   -1.4371 H   0  0  0  0  0  0  0  0  0  0  0  0
    3.4277   -4.1468   -2.0204 H   0  0  0  0  0  0  0  0  0  0  0  0
    4.7641   -2.2372   -2.9851 H   0  0  0  0  0  0  0  0  0  0  0  0
    3.1586   -1.8501   -2.4411 H   0  0  0  0  0  0  0  0  0  0  0  0
    5.3996   -0.4333   -1.7527 H   0  0  0  0  0  0  0  0  0  0  0  0
    3.9137   -0.4024   -0.8493 H   0  0  0  0  0  0  0  0  0  0  0  0
    6.1559   -2.3521   -0.3509 H   0  0  0  0  0  0  0  0  0  0  0  0
    6.6507   -1.0606    1.3799 H   0  0  0  0  0  0  0  0  0  0  0  0
    4.1070   -0.3984    1.7704 H   0  0  0  0  0  0  0  0  0  0  0  0
    1.9709   -0.8217    0.8813 H   0  0  0  0  0  0  0  0  0  0  0  0
    1.5279   -1.9076    2.1206 H   0  0  0  0  0  0  0  0  0  0  0  0
    3.2683    1.5530    2.5261 H   0  0  0  0  0  0  0  0  0  0  0  0
    2.0160    1.5339    1.2763 H   0  0  0  0  0  0  0  0  0  0  0  0
    1.8341    2.6331    4.0659 H   0  0  0  0  0  0  0  0  0  0  0  0
    1.1245    3.2573    2.5739 H   0  0  0  0  0  0  0  0  0  0  0  0
   -0.0681    1.4552    4.5485 H   0  0  0  0  0  0  0  0  0  0  0  0
   -0.8553    2.0299    3.0748 H   0  0  0  0  0  0  0  0  0  0  0  0
   -0.1613    0.1658    1.8297 H   0  0  0  0  0  0  0  0  0  0  0  0
   -0.1847   -0.6365    3.4070 H   0  0  0  0  0  0  0  0  0  0  0  0
    5.6305   -4.2357    0.4704 H   0  0  0  0  0  0  0  0  0  0  0  0
    2.0553   -0.1045    3.6649 H   0  0  0  0  0  0  0  0  0  0  0  0
  1  2  1  0
  1 30  1  0
  1 31  1  0
  1 32  1  0
  2 21  1  0
  2  3  1  0
  2  4  1  0
  3 33  1  0
  3 34  1  0
  3 35  1  0
  4 28  1  0
  4  5  1  0
  4 36  1  6
  5  6  2  0
  5 37  1  0
  6 12  1  0
  6  7  1  0
  7 28  1  0
  7  8  1  0
  7 38  1  6
  8  9  2  0
  8 10  1  0
 10 11  1  0
 10 39  1  0
 10 40  1  0
 11 12  1  0
 11 41  1  0
 11 42  1  0
 12 13  1  1
 12 14  1  0
 13 43  1  0
 14 20  1  0
 14 15  1  0
 14 44  1  6
 15 16  1  0
 15 45  1  0
 15 46  1  0
 16 17  1  0
 16 47  1  0
 16 48  1  0
 17 18  1  0
 17 49  1  0
 17 50  1  0
 18 19  1  0
 18 20  1  0
 18 51  1  6
 19 52  1  0
 20 21  1  0
 20 28  1  1
 21 22  1  0
 21 53  1  6
 22 23  1  0
 22 54  1  0
 22 55  1  0
 23 27  1  0
 23 24  1  0
 23 65  1  0
 24 25  1  0
 24 56  1  0
 24 57  1  0
 25 26  1  0
 25 58  1  0
 25 59  1  0
 26 27  1  0
 26 60  1  0
 26 61  1  0
 27 62  1  0
 27 63  1  0
 28 29  1  6
 29 64  1  0
M  CHG  1  23   1
M  END
>  <i_m_ct_stereo_status>  (67) 
1

>  <s_m_source_file>  (67) 
/var/tmp/pbs.5076255.sched01/tmp6mkrr40i/0ze8ciewu.sdf

>  <i_m_source_file_index>  (67) 
34

>  <i_lp_mmshare_version>  (67) 
48012

>  <i_f3d_flags>  (67) 
0

>  <s_epik_input>  (67) 
W0NIMl0xW0NIMl1bQ0gyXVtDSDJdTjFbQ0gyXVtDQEhdMkMoW0NIM10pKFtDSDNdKVtDQEBIXShbQ0hdPTMpW0NAQF00KFtPSF0pW0NASF0oQyg9TylbQ0gyXVtDSDJdNSlDM1tDQEBdNShbT0hdKVtDQEBIXShbQ0BAXTI0NilbQ0gyXVtDSDJdW0NIMl1bQ0BIXTZbT0hd

>  <s_epik_cmdline>  (67) 
J2VwaWtfcHl0aG9uJywgJy1waHQnLCAnMi4wJywgJy1waCcsICc3LjAnLCAnLXRuJywgJzgnLCAnLW1hJywgJzIwMCcsICctaW1hZScsICc8aW5maWxlLm1hZT4nLCAnLW9tYWUnLCAnPG91dGZpbGUubWFlPic=

>  <r_lp_tautomer_probability>  (67) 
1

>  <r_epik_Ionization_Penalty>  (67) 
0.000123174

>  <r_epik_Ionization_Penalty_Charging>  (67) 
0.000122617

>  <r_epik_Ionization_Penalty_Neutral>  (67) 
5.56917e-07

>  <r_epik_State_Penalty>  (67) 
-0

>  <r_epik_Charging_Adjusted_Penalty>  (67) 
0.000122617

>  <i_epik_Tot_Q>  (67) 
1

>  <i_epik_Tot_abs_Q>  (67) 
1

>  <s_lp_Force_Field>  (67) 
OPLS3e

>  <r_lp_Energy>  (67) 
515.302

>  <b_lp_Chiralities_Consistent>  (67) 
1

>  <s_lp_Variant>  (67) 
25:0-1

>  <s_i_glide_gridfile>  (67) 
pfpi4k_grid

>  <i_i_glide_lignum>  (67) 
34

>  <i_i_glide_rotatable_bonds>  (67) 
5

>  <r_i_docking_score>  (67) 
-3.2582

>  <r_i_glide_ligand_efficiency>  (67) 
-0.112352

>  <r_i_glide_ligand_efficiency_sa>  (67) 
-0.34518

>  <r_i_glide_ligand_efficiency_ln>  (67) 
-0.746046

>  <r_i_glide_gscore>  (67) 
-3.2582

>  <r_i_glide_lipo>  (67) 
-0.256524

>  <r_i_glide_hbond>  (67) 
-0.202857

>  <r_i_glide_metal>  (67) 
-0

>  <r_i_glide_rewards>  (67) 
-0.664453

>  <r_i_glide_evdw>  (67) 
-25.6031

>  <r_i_glide_ecoul>  (67) 
-7.16019

>  <r_i_glide_erotb>  (67) 
0.242216

>  <r_i_glide_esite>  (67) 
-0.0224002

>  <r_i_glide_emodel>  (67) 
-38.9281

>  <r_i_glide_energy>  (67) 
-32.7633

>  <r_i_glide_einternal>  (67) 
1.18821

>  <r_i_glide_intrahb_reward>  (67) 
-0

>  <i_i_glide_confnum>  (67) 
5

>  <i_i_glide_posenum>  (67) 
14

>  <r_i_glide_eff_state_penalty>  (67) 
0

>  <ligand_id>  (67) 
25

>  <original_smiles>  (67) 
CC1(C)C2C=C3C4C(=O)CCC3(O)C3CCCC(O)C3(C1CN1CCCC1)C42O

>  <smiles>  (67) 
[H]OC1([H])C([H])([H])C([H])([H])C([H])([H])C2([H])C3(O[H])C4=C([H])C5([H])C(O[H])(C4([H])C(=O)C([H])([H])C3([H])[H])C12C([H])(C([H])([H])[N+]1([H])C([H])([H])C([H])([H])C([H])([H])C1([H])[H])C5(C([H])([H])[H])C([H])([H])[H]

$$$$
25:0:2
     RDKit          3D

 65 70  0  0  1  0  0  0  0  0999 V2000
    2.0483   -5.2714    6.2568 C   0  0  0  0  0  0  0  0  0  0  0  0
    2.9640   -6.4303    5.7987 C   0  0  0  0  0  0  0  0  0  0  0  0
    4.2113   -6.2935    6.7124 C   0  0  0  0  0  0  0  0  0  0  0  0
    2.4181   -7.9122    6.0742 C   0  0  1  0  0  0  0  0  0  0  0  0
    1.0160   -8.5496    5.8296 C   0  0  0  0  0  0  0  0  0  0  0  0
    0.4982   -8.6858    4.5039 C   0  0  0  0  0  0  0  0  0  0  0  0
    1.0159   -7.4111    4.2484 C   0  0  1  0  0  0  0  0  0  0  0  0
   -0.4905   -6.9664    4.4485 C   0  0  0  0  0  0  0  0  0  0  0  0
   -0.8931   -6.2296    5.3464 O   0  0  0  0  0  0  0  0  0  0  0  0
   -1.4159   -7.4997    3.3082 C   0  0  0  0  0  0  0  0  0  0  0  0
   -0.7818   -8.8486    2.7011 C   0  0  0  0  0  0  0  0  0  0  0  0
    0.8424   -8.9992    2.9240 C   0  0  2  0  0  0  0  0  0  0  0  0
    0.5145   -8.2407    1.7415 O   0  0  0  0  0  0  0  0  0  0  0  0
    2.3910   -8.3299    2.4178 C   0  0  2  0  0  0  0  0  0  0  0  0
    3.1406   -9.2695    1.4369 C   0  0  0  0  0  0  0  0  0  0  0  0
    4.4940   -8.6932    0.9433 C   0  0  0  0  0  0  0  0  0  0  0  0
    5.3447   -8.0451    2.0527 C   0  0  0  0  0  0  0  0  0  0  0  0
    4.8080   -8.4150    3.4383 C   0  0  1  0  0  0  0  0  0  0  0  0
    5.7538   -8.0512    4.4115 O   0  0  0  0  0  0  0  0  0  0  0  0
    3.3660   -7.7884    3.6317 C   0  0  1  0  0  0  0  0  0  0  0  0
    3.4385   -6.3306    4.2529 C   0  0  1  0  0  0  0  0  0  0  0  0
    2.9171   -5.1329    3.3891 C   0  0  0  0  0  0  0  0  0  0  0  0
    3.8270   -4.8126    2.2675 N   0  0  0  0  0  0  0  0  0  0  0  0
    3.2107   -4.0357    1.1738 C   0  0  0  0  0  0  0  0  0  0  0  0
    4.3874   -3.5106    0.3493 C   0  0  0  0  0  0  0  0  0  0  0  0
    5.5896   -3.5214    1.3118 C   0  0  0  0  0  0  0  0  0  0  0  0
    5.0393   -4.0497    2.6354 C   0  0  0  0  0  0  0  0  0  0  0  0
    2.4533   -8.2528    4.6977 C   0  0  1  0  0  0  0  0  0  0  0  0
    2.8363   -9.6956    4.6954 O   0  0  0  0  0  0  0  0  0  0  0  0
    1.6018   -5.4751    7.2275 H   0  0  0  0  0  0  0  0  0  0  0  0
    1.2544   -5.0353    5.5563 H   0  0  0  0  0  0  0  0  0  0  0  0
    2.6231   -4.3484    6.3602 H   0  0  0  0  0  0  0  0  0  0  0  0
    4.8978   -7.1353    6.5921 H   0  0  0  0  0  0  0  0  0  0  0  0
    3.9312   -6.2747    7.7678 H   0  0  0  0  0  0  0  0  0  0  0  0
    4.7809   -5.3825    6.5064 H   0  0  0  0  0  0  0  0  0  0  0  0
    3.0500   -8.5260    6.7313 H   0  0  0  0  0  0  0  0  0  0  0  0
    0.4600   -8.9213    6.6644 H   0  0  0  0  0  0  0  0  0  0  0  0
    1.0224   -6.8586    3.3215 H   0  0  0  0  0  0  0  0  0  0  0  0
   -2.4261   -7.6595    3.6803 H   0  0  0  0  0  0  0  0  0  0  0  0
   -1.4704   -6.7297    2.5402 H   0  0  0  0  0  0  0  0  0  0  0  0
   -1.2247   -9.6339    3.3233 H   0  0  0  0  0  0  0  0  0  0  0  0
   -1.3152   -9.1760    1.7796 H   0  0  0  0  0  0  0  0  0  0  0  0
    0.2441   -8.8470    1.0617 H   0  0  0  0  0  0  0  0  0  0  0  0
    2.3891   -7.3928    1.8334 H   0  0  0  0  0  0  0  0  0  0  0  0
    3.3105  -10.2392    1.9048 H   0  0  0  0  0  0  0  0  0  0  0  0
    2.5239   -9.4723    0.5590 H   0  0  0  0  0  0  0  0  0  0  0  0
    5.0612   -9.5103    0.4987 H   0  0  0  0  0  0  0  0  0  0  0  0
    4.3369   -7.9729    0.1366 H   0  0  0  0  0  0  0  0  0  0  0  0
    6.3857   -8.3549    1.9396 H   0  0  0  0  0  0  0  0  0  0  0  0
    5.3606   -6.9632    1.9271 H   0  0  0  0  0  0  0  0  0  0  0  0
    4.8161   -9.5029    3.4584 H   0  0  0  0  0  0  0  0  0  0  0  0
    5.5075   -8.4701    5.2208 H   0  0  0  0  0  0  0  0  0  0  0  0
    4.4807   -6.0647    4.3542 H   0  0  0  0  0  0  0  0  0  0  0  0
    1.9417   -5.2657    2.9467 H   0  0  0  0  0  0  0  0  0  0  0  0
    2.7798   -4.2481    4.0118 H   0  0  0  0  0  0  0  0  0  0  0  0
    2.5010   -4.6200    0.5845 H   0  0  0  0  0  0  0  0  0  0  0  0
    2.6674   -3.1950    1.6117 H   0  0  0  0  0  0  0  0  0  0  0  0
    4.5788   -4.1778   -0.4940 H   0  0  0  0  0  0  0  0  0  0  0  0
    4.1769   -2.5191   -0.0515 H   0  0  0  0  0  0  0  0  0  0  0  0
    6.3617   -4.1971    0.9381 H   0  0  0  0  0  0  0  0  0  0  0  0
    6.0389   -2.5371    1.4407 H   0  0  0  0  0  0  0  0  0  0  0  0
    4.7435   -3.2072    3.2623 H   0  0  0  0  0  0  0  0  0  0  0  0
    5.7769   -4.6331    3.1874 H   0  0  0  0  0  0  0  0  0  0  0  0
    2.7017  -10.0721    3.8478 H   0  0  0  0  0  0  0  0  0  0  0  0
    4.1442   -5.6668    1.8336 H   0  0  0  0  0  0  0  0  0  0  0  0
  1  2  1  0
  1 30  1  0
  1 31  1  0
  1 32  1  0
  2 21  1  0
  2  3  1  0
  2  4  1  0
  3 33  1  0
  3 34  1  0
  3 35  1  0
  4 28  1  0
  4  5  1  0
  4 36  1  1
  5  6  2  0
  5 37  1  0
  6 12  1  0
  6  7  1  0
  7 28  1  0
  7  8  1  0
  7 38  1  6
  8  9  2  0
  8 10  1  0
 10 11  1  0
 10 39  1  0
 10 40  1  0
 11 12  1  0
 11 41  1  0
 11 42  1  0
 12 13  1  6
 12 14  1  0
 13 43  1  0
 14 20  1  0
 14 15  1  0
 14 44  1  6
 15 16  1  0
 15 45  1  0
 15 46  1  0
 16 17  1  0
 16 47  1  0
 16 48  1  0
 17 18  1  0
 17 49  1  0
 17 50  1  0
 18 19  1  0
 18 20  1  0
 18 51  1  6
 19 52  1  0
 20 21  1  0
 20 28  1  1
 21 22  1  0
 21 53  1  1
 22 23  1  0
 22 54  1  0
 22 55  1  0
 23 27  1  0
 23 24  1  0
 23 65  1  0
 24 25  1  0
 24 56  1  0
 24 57  1  0
 25 26  1  0
 25 58  1  0
 25 59  1  0
 26 27  1  0
 26 60  1  0
 26 61  1  0
 27 62  1  0
 27 63  1  0
 28 29  1  1
 29 64  1  0
M  CHG  1  23   1
M  END
>  <i_m_ct_stereo_status>  (68) 
1

>  <s_m_source_file>  (68) 
/var/tmp/pbs.5076255.sched01/tmp6mkrr40i/0ze8ciewu.sdf

>  <i_m_source_file_index>  (68) 
34

>  <i_lp_mmshare_version>  (68) 
48012

>  <i_f3d_flags>  (68) 
0

>  <s_epik_input>  (68) 
W0NIMl0xW0NIMl1bQ0gyXVtDSDJdTjFbQ0gyXVtDQEhdMkMoW0NIM10pKFtDSDNdKVtDQEBIXShbQ0hdPTMpW0NAQF00KFtPSF0pW0NASF0oQyg9TylbQ0gyXVtDSDJdNSlDM1tDQEBdNShbT0hdKVtDQEBIXShbQ0BAXTI0NilbQ0gyXVtDSDJdW0NIMl1bQ0BIXTZbT0hd

>  <s_epik_cmdline>  (68) 
J2VwaWtfcHl0aG9uJywgJy1waHQnLCAnMi4wJywgJy1waCcsICc3LjAnLCAnLXRuJywgJzgnLCAnLW1hJywgJzIwMCcsICctaW1hZScsICc8aW5maWxlLm1hZT4nLCAnLW9tYWUnLCAnPG91dGZpbGUubWFlPic=

>  <r_lp_tautomer_probability>  (68) 
1

>  <r_epik_Ionization_Penalty>  (68) 
0.000123174

>  <r_epik_Ionization_Penalty_Charging>  (68) 
0.000122617

>  <r_epik_Ionization_Penalty_Neutral>  (68) 
5.56917e-07

>  <r_epik_State_Penalty>  (68) 
-0

>  <r_epik_Charging_Adjusted_Penalty>  (68) 
0.000122617

>  <i_epik_Tot_Q>  (68) 
1

>  <i_epik_Tot_abs_Q>  (68) 
1

>  <s_lp_Force_Field>  (68) 
OPLS3e

>  <r_lp_Energy>  (68) 
515.302

>  <b_lp_Chiralities_Consistent>  (68) 
1

>  <s_lp_Variant>  (68) 
25:0-1

>  <s_i_glide_gridfile>  (68) 
pfpi4k_grid

>  <i_i_glide_lignum>  (68) 
34

>  <i_i_glide_rotatable_bonds>  (68) 
5

>  <r_i_docking_score>  (68) 
-3.21951

>  <r_i_glide_ligand_efficiency>  (68) 
-0.111018

>  <r_i_glide_ligand_efficiency_sa>  (68) 
-0.341081

>  <r_i_glide_ligand_efficiency_ln>  (68) 
-0.737186

>  <r_i_glide_gscore>  (68) 
-3.21951

>  <r_i_glide_lipo>  (68) 
-0.150698

>  <r_i_glide_hbond>  (68) 
-0.32

>  <r_i_glide_metal>  (68) 
-0

>  <r_i_glide_rewards>  (68) 
-0.664453

>  <r_i_glide_evdw>  (68) 
-25.2615

>  <r_i_glide_ecoul>  (68) 
-6.83385

>  <r_i_glide_erotb>  (68) 
0.242216

>  <r_i_glide_esite>  (68) 
-0.0384255

>  <r_i_glide_emodel>  (68) 
-37.4459

>  <r_i_glide_energy>  (68) 
-32.0953

>  <r_i_glide_einternal>  (68) 
1.73813

>  <r_i_glide_intrahb_reward>  (68) 
-0

>  <i_i_glide_confnum>  (68) 
2

>  <i_i_glide_posenum>  (68) 
2

>  <r_i_glide_eff_state_penalty>  (68) 
0

>  <ligand_id>  (68) 
25

>  <original_smiles>  (68) 
CC1(C)C2C=C3C4C(=O)CCC3(O)C3CCCC(O)C3(C1CN1CCCC1)C42O

>  <smiles>  (68) 
[H]OC1([H])C([H])([H])C([H])([H])C([H])([H])C2([H])C3(O[H])C4=C([H])C5([H])C(O[H])(C4([H])C(=O)C([H])([H])C3([H])[H])C12C([H])(C([H])([H])[N+]1([H])C([H])([H])C([H])([H])C([H])([H])C1([H])[H])C5(C([H])([H])[H])C([H])([H])[H]

$$$$
26:0:0
     RDKit          3D

 88 93  0  0  1  0  0  0  0  0999 V2000
    0.3897    1.4347    3.0137 C   0  0  0  0  0  0  0  0  0  0  0  0
    0.9239    2.4503    4.0576 C   0  0  0  0  0  0  0  0  0  0  0  0
    2.4428    2.7082    3.8716 C   0  0  0  0  0  0  0  0  0  0  0  0
    0.1387    3.7531    3.9287 C   0  0  0  0  0  0  0  0  0  0  0  0
   -1.0017    3.7049    4.7963 O   0  0  0  0  0  0  0  0  0  0  0  0
   -0.9340    2.5674    5.6095 C   0  0  1  0  0  0  0  0  0  0  0  0
   -1.8710    1.5914    5.1970 O   0  0  0  0  0  0  0  0  0  0  0  0
    0.5304    2.0460    5.4939 C   0  0  1  0  0  0  0  0  0  0  0  0
    0.7070    0.5271    5.8651 C   0  0  2  0  0  0  0  0  0  0  0  0
    0.1593    0.1223    7.2171 C   0  0  0  0  0  0  0  0  0  0  0  0
   -0.8907    0.5574    7.7317 O   0  0  0  0  0  0  0  0  0  0  0  0
    1.0177   -0.9218    7.8909 C   0  0  0  0  0  0  0  0  0  0  0  0
    2.0299   -1.2705    6.8057 C   0  0  0  0  0  0  0  0  0  0  0  0
    2.7620   -2.4278    6.6609 C   0  0  0  0  0  0  0  0  0  0  0  0
    2.6866   -3.6458    7.5810 C   0  0  1  0  0  0  0  0  0  0  0  0
    1.9016   -3.4687    8.7471 O   0  0  0  0  0  0  0  0  0  0  0  0
    2.1904   -4.8143    6.7390 C   0  0  0  0  0  0  0  0  0  0  0  0
    1.0816   -5.3149    6.9455 O   0  0  0  0  0  0  0  0  0  0  0  0
    3.1634   -5.2582    5.6085 C   0  0  1  0  0  0  0  0  0  0  0  0
    2.7243   -6.6339    4.8960 C   0  0  2  0  0  0  0  0  0  0  0  0
    2.4674   -7.6725    6.0396 C   0  0  0  0  0  0  0  0  0  0  0  0
    3.8479   -7.2878    4.0258 C   0  0  0  0  0  0  0  0  0  0  0  0
    3.4150   -8.5365    3.2261 C   0  0  0  0  0  0  0  0  0  0  0  0
    2.1917   -8.2499    2.3459 C   0  0  1  0  0  0  0  0  0  0  0  0
    1.8667   -9.4521    1.6849 O   0  0  0  0  0  0  0  0  0  0  0  0
    0.9887   -7.6482    3.1259 C   0  0  0  0  0  0  0  0  0  0  0  0
   -0.0977   -7.2400    2.0971 C   0  0  0  0  0  0  0  0  0  0  0  0
    0.3185   -8.7043    4.0513 C   0  0  0  0  0  0  0  0  0  0  0  0
    1.4753   -6.3874    3.9587 C   0  0  2  0  0  0  0  0  0  0  0  0
    1.7491   -5.1439    3.0540 C   0  0  0  0  0  0  0  0  0  0  0  0
    2.1841   -3.8585    3.7928 C   0  0  0  0  0  0  0  0  0  0  0  0
    3.4605   -3.9993    4.6741 C   0  0  2  0  0  0  0  0  0  0  0  0
    4.6915   -4.2677    3.7396 C   0  0  0  0  0  0  0  0  0  0  0  0
    3.7835   -2.6581    5.5086 C   0  0  2  0  0  0  0  0  0  0  0  0
    5.1866   -2.7373    6.1871 C   0  0  0  0  0  0  0  0  0  0  0  0
    3.8096   -1.4219    4.5714 C   0  0  0  0  0  0  0  0  0  0  0  0
    4.8538   -1.0823    3.9829 O   0  0  0  0  0  0  0  0  0  0  0  0
    2.5671   -0.5893    4.4603 C   0  0  0  0  0  0  0  0  0  0  0  0
    2.1491   -0.0732    5.8718 C   0  0  1  0  0  0  0  0  0  0  0  0
    3.1937    0.8774    6.5618 C   0  0  0  0  0  0  0  0  0  0  0  0
    0.6473    1.7356    2.0001 H   0  0  0  0  0  0  0  0  0  0  0  0
   -0.6985    1.3389    3.0241 H   0  0  0  0  0  0  0  0  0  0  0  0
    0.7558    0.4243    3.1524 H   0  0  0  0  0  0  0  0  0  0  0  0
    2.7924    3.4337    4.6099 H   0  0  0  0  0  0  0  0  0  0  0  0
    2.6092    3.2000    2.9154 H   0  0  0  0  0  0  0  0  0  0  0  0
    3.0448    1.8634    3.9103 H   0  0  0  0  0  0  0  0  0  0  0  0
    0.7297    4.6086    4.2661 H   0  0  0  0  0  0  0  0  0  0  0  0
   -0.1573    3.9546    2.8931 H   0  0  0  0  0  0  0  0  0  0  0  0
   -1.2107    2.8680    6.6233 H   0  0  0  0  0  0  0  0  0  0  0  0
   -1.6375    1.3259    4.3240 H   0  0  0  0  0  0  0  0  0  0  0  0
    1.0944    2.6562    6.2140 H   0  0  0  0  0  0  0  0  0  0  0  0
    0.1077   -0.0629    5.1684 H   0  0  0  0  0  0  0  0  0  0  0  0
    1.5063   -0.4546    8.7520 H   0  0  0  0  0  0  0  0  0  0  0  0
    0.3989   -1.7563    8.2202 H   0  0  0  0  0  0  0  0  0  0  0  0
    3.6923   -3.8630    7.9341 H   0  0  0  0  0  0  0  0  0  0  0  0
    2.1229   -4.1530    9.3521 H   0  0  0  0  0  0  0  0  0  0  0  0
    4.0980   -5.4829    6.1238 H   0  0  0  0  0  0  0  0  0  0  0  0
    2.7050   -8.7025    5.7824 H   0  0  0  0  0  0  0  0  0  0  0  0
    1.4304   -7.6789    6.3796 H   0  0  0  0  0  0  0  0  0  0  0  0
    3.0936   -7.4705    6.9139 H   0  0  0  0  0  0  0  0  0  0  0  0
    4.1990   -6.6256    3.2507 H   0  0  0  0  0  0  0  0  0  0  0  0
    4.7245   -7.5207    4.6413 H   0  0  0  0  0  0  0  0  0  0  0  0
    4.2445   -8.8428    2.5835 H   0  0  0  0  0  0  0  0  0  0  0  0
    3.2439   -9.3972    3.8763 H   0  0  0  0  0  0  0  0  0  0  0  0
    2.4958   -7.5570    1.5666 H   0  0  0  0  0  0  0  0  0  0  0  0
    1.1160   -9.3231    1.1197 H   0  0  0  0  0  0  0  0  0  0  0  0
   -0.8978   -6.6648    2.5742 H   0  0  0  0  0  0  0  0  0  0  0  0
   -0.5655   -8.1128    1.6354 H   0  0  0  0  0  0  0  0  0  0  0  0
    0.3187   -6.6544    1.2781 H   0  0  0  0  0  0  0  0  0  0  0  0
   -0.3209   -8.2394    4.8110 H   0  0  0  0  0  0  0  0  0  0  0  0
    1.0375   -9.3350    4.5641 H   0  0  0  0  0  0  0  0  0  0  0  0
   -0.3156   -9.3971    3.4910 H   0  0  0  0  0  0  0  0  0  0  0  0
    0.6373   -6.0944    4.5942 H   0  0  0  0  0  0  0  0  0  0  0  0
    2.4742   -5.3917    2.2794 H   0  0  0  0  0  0  0  0  0  0  0  0
    0.8410   -4.8747    2.5118 H   0  0  0  0  0  0  0  0  0  0  0  0
    2.3235   -3.0877    3.0299 H   0  0  0  0  0  0  0  0  0  0  0  0
    1.3438   -3.5224    4.3995 H   0  0  0  0  0  0  0  0  0  0  0  0
    5.2797   -3.3872    3.4938 H   0  0  0  0  0  0  0  0  0  0  0  0
    4.4245   -4.6404    2.7514 H   0  0  0  0  0  0  0  0  0  0  0  0
    5.4011   -4.9590    4.1987 H   0  0  0  0  0  0  0  0  0  0  0  0
    5.3115   -1.9132    6.8983 H   0  0  0  0  0  0  0  0  0  0  0  0
    6.0214   -2.6490    5.4863 H   0  0  0  0  0  0  0  0  0  0  0  0
    5.3678   -3.6749    6.7355 H   0  0  0  0  0  0  0  0  0  0  0  0
    2.7414    0.1319    3.7138 H   0  0  0  0  0  0  0  0  0  0  0  0
    1.7826   -1.2746    4.1129 H   0  0  0  0  0  0  0  0  0  0  0  0
    3.4820    1.7477    5.9645 H   0  0  0  0  0  0  0  0  0  0  0  0
    4.1210    0.3412    6.8086 H   0  0  0  0  0  0  0  0  0  0  0  0
    2.8060    1.2715    7.5134 H   0  0  0  0  0  0  0  0  0  0  0  0
  1  2  1  0
  1 41  1  0
  1 42  1  0
  1 43  1  0
  2  8  1  0
  2  3  1  0
  2  4  1  0
  3 44  1  0
  3 45  1  0
  3 46  1  0
  4  5  1  0
  4 47  1  0
  4 48  1  0
  5  6  1  0
  6  7  1  0
  6  8  1  0
  6 49  1  1
  7 50  1  0
  8  9  1  0
  8 51  1  1
  9 39  1  0
  9 10  1  0
  9 52  1  6
 10 11  2  0
 10 12  1  0
 12 13  1  0
 12 53  1  0
 12 54  1  0
 13 39  1  0
 13 14  2  0
 14 34  1  0
 14 15  1  0
 15 16  1  0
 15 17  1  0
 15 55  1  1
 16 56  1  0
 17 18  2  0
 17 19  1  0
 19 32  1  0
 19 20  1  0
 19 57  1  1
 20 29  1  0
 20 21  1  1
 20 22  1  0
 21 58  1  0
 21 59  1  0
 21 60  1  0
 22 23  1  0
 22 61  1  0
 22 62  1  0
 23 24  1  0
 23 63  1  0
 23 64  1  0
 24 25  1  0
 24 26  1  0
 24 65  1  6
 25 66  1  0
 26 27  1  0
 26 28  1  0
 26 29  1  0
 27 67  1  0
 27 68  1  0
 27 69  1  0
 28 70  1  0
 28 71  1  0
 28 72  1  0
 29 30  1  0
 29 73  1  1
 30 31  1  0
 30 74  1  0
 30 75  1  0
 31 32  1  0
 31 76  1  0
 31 77  1  0
 32 33  1  6
 32 34  1  0
 33 78  1  0
 33 79  1  0
 33 80  1  0
 34 35  1  1
 34 36  1  0
 35 81  1  0
 35 82  1  0
 35 83  1  0
 36 37  2  0
 36 38  1  0
 38 39  1  0
 38 84  1  0
 38 85  1  0
 39 40  1  1
 40 86  1  0
 40 87  1  0
 40 88  1  0
M  END
>  <i_m_ct_stereo_status>  (69) 
1

>  <s_m_source_file>  (69) 
/var/tmp/pbs.5076255.sched01/tmp6mkrr40i/0ze8ciewu.sdf

>  <i_m_source_file_index>  (69) 
35

>  <i_lp_mmshare_version>  (69) 
48012

>  <i_f3d_flags>  (69) 
0

>  <s_epik_input>  (69) 
W0NIM11DMShbQ0gzXSlbQ0gyXU9bQ0BASF0oW09IXSlbQ0BIXTFbQ0BIXShDKD1PKVtDSDJdMilbQ0BdKFtDSDNdKShbQ0gyXUMzPU8pQzI9QyhbQ0BASF0oW09IXSlDND1PKVtDQEBdMyhbQ0gzXSlbQ0BAXShbQ0gzXSkoW0NAQEhdNFtDQF01NltDSDNdKVtDSDJdW0NIMl1bQ0BIXTZDKFtDSDNdKShbQ0gzXSlbQ0BIXShbT0hdKVtDSDJdW0NIMl01

>  <s_epik_cmdline>  (69) 
J2VwaWtfcHl0aG9uJywgJy1waHQnLCAnMi4wJywgJy1waCcsICc3LjAnLCAnLXRuJywgJzgnLCAnLW1hJywgJzIwMCcsICctaW1hZScsICc8aW5maWxlLm1hZT4nLCAnLW9tYWUnLCAnPG91dGZpbGUubWFlPic=

>  <r_lp_tautomer_probability>  (69) 
1

>  <r_epik_Ionization_Penalty>  (69) 
3.12406e-05

>  <r_epik_Ionization_Penalty_Charging>  (69) 
0

>  <r_epik_Ionization_Penalty_Neutral>  (69) 
3.12406e-05

>  <r_epik_State_Penalty>  (69) 
-0

>  <r_epik_Charging_Adjusted_Penalty>  (69) 
0

>  <i_epik_Tot_Q>  (69) 
0

>  <i_epik_Tot_abs_Q>  (69) 
0

>  <s_epik_Chemistry_Notes>  (69) 
This compound contains an acetal/aminal-like group ( X-CH(R)-Y where X, Y are N, S, or O) that may be acid/base labile, releasing an aldehyde.

>  <s_lp_Force_Field>  (69) 
OPLS3e

>  <r_lp_Energy>  (69) 
86.3185

>  <b_lp_Chiralities_Consistent>  (69) 
1

>  <s_lp_Variant>  (69) 
26:0-1

>  <s_i_glide_gridfile>  (69) 
pfpi4k_grid

>  <i_i_glide_lignum>  (69) 
35

>  <i_i_glide_rotatable_bonds>  (69) 
4

>  <r_i_docking_score>  (69) 
-2.74802

>  <r_i_glide_ligand_efficiency>  (69) 
-0.0687006

>  <r_i_glide_ligand_efficiency_sa>  (69) 
-0.234953

>  <r_i_glide_ligand_efficiency_ln>  (69) 
-0.586073

>  <r_i_glide_gscore>  (69) 
-2.74802

>  <r_i_glide_lipo>  (69) 
-0.0145565

>  <r_i_glide_hbond>  (69) 
-0.406424

>  <r_i_glide_metal>  (69) 
-0

>  <r_i_glide_rewards>  (69) 
0

>  <r_i_glide_evdw>  (69) 
-26.5192

>  <r_i_glide_ecoul>  (69) 
-6.91333

>  <r_i_glide_erotb>  (69) 
0.0670092

>  <r_i_glide_esite>  (69) 
-0.0310946

>  <r_i_glide_emodel>  (69) 
-36.7417

>  <r_i_glide_energy>  (69) 
-33.4325

>  <r_i_glide_einternal>  (69) 
2.66536

>  <r_i_glide_intrahb_reward>  (69) 
-0

>  <i_i_glide_confnum>  (69) 
4

>  <i_i_glide_posenum>  (69) 
12

>  <r_i_glide_eff_state_penalty>  (69) 
0

>  <ligand_id>  (69) 
26

>  <original_smiles>  (69) 
CC1(C)COC(O)C1C1C(=O)CC2=C3C(O)C(=O)C4C5(C)CCC(O)C(C)(C)C5CCC4(C)C3(C)C(=O)CC21C

>  <smiles>  (69) 
[H]OC1([H])C(=O)C2([H])C(C([H])([H])[H])(C([H])([H])C([H])([H])C3([H])C(C([H])([H])[H])(C([H])([H])[H])C([H])(O[H])C([H])([H])C([H])([H])C23C([H])([H])[H])C2(C([H])([H])[H])C(=O)C([H])([H])C3(C([H])([H])[H])C(=C12)C([H])([H])C(=O)C3([H])C1([H])C([H])(O[H])OC([H])([H])C1(C([H])([H])[H])C([H])([H])[H]

$$$$
26:0:1
     RDKit          3D

 88 93  0  0  1  0  0  0  0  0999 V2000
   -1.0411    0.5165    3.2694 C   0  0  0  0  0  0  0  0  0  0  0  0
   -0.2530    1.6765    3.9236 C   0  0  0  0  0  0  0  0  0  0  0  0
    0.9857    2.0787    3.0667 C   0  0  0  0  0  0  0  0  0  0  0  0
   -1.1889    2.8842    4.0777 C   0  0  0  0  0  0  0  0  0  0  0  0
   -1.8463    2.7916    5.3509 O   0  0  0  0  0  0  0  0  0  0  0  0
   -1.2716    1.7806    6.1334 C   0  0  1  0  0  0  0  0  0  0  0  0
   -2.1394    0.6705    6.2422 O   0  0  0  0  0  0  0  0  0  0  0  0
    0.0646    1.3970    5.4152 C   0  0  1  0  0  0  0  0  0  0  0  0
    0.6098   -0.0348    5.7731 C   0  0  2  0  0  0  0  0  0  0  0  0
    0.8593   -0.3057    7.2435 C   0  0  0  0  0  0  0  0  0  0  0  0
    0.1247    0.0946    8.1817 O   0  0  0  0  0  0  0  0  0  0  0  0
    2.0619   -1.1703    7.4999 C   0  0  0  0  0  0  0  0  0  0  0  0
    2.4551   -1.5856    6.0814 C   0  0  0  0  0  0  0  0  0  0  0  0
    3.1472   -2.7047    5.6872 C   0  0  0  0  0  0  0  0  0  0  0  0
    3.7018   -3.7780    6.6029 C   0  0  1  0  0  0  0  0  0  0  0  0
    3.5775   -3.4960    7.9831 O   0  0  0  0  0  0  0  0  0  0  0  0
    3.0122   -5.0777    6.2257 C   0  0  0  0  0  0  0  0  0  0  0  0
    2.2126   -5.6203    7.0146 O   0  0  0  0  0  0  0  0  0  0  0  0
    3.3324   -5.6150    4.8033 C   0  0  1  0  0  0  0  0  0  0  0  0
    2.7846   -7.1007    4.5369 C   0  0  2  0  0  0  0  0  0  0  0  0
    3.2652   -7.9808    5.7372 C   0  0  0  0  0  0  0  0  0  0  0  0
    3.3946   -7.7969    3.2735 C   0  0  0  0  0  0  0  0  0  0  0  0
    2.7846   -9.1705    2.9188 C   0  0  0  0  0  0  0  0  0  0  0  0
    1.2537   -9.0781    2.7923 C   0  0  1  0  0  0  0  0  0  0  0  0
    0.7315  -10.3660    2.5933 O   0  0  0  0  0  0  0  0  0  0  0  0
    0.5420   -8.4487    4.0143 C   0  0  0  0  0  0  0  0  0  0  0  0
   -0.9563   -8.2710    3.6487 C   0  0  0  0  0  0  0  0  0  0  0  0
    0.5678   -9.4195    5.2259 C   0  0  0  0  0  0  0  0  0  0  0  0
    1.2172   -7.0676    4.3611 C   0  0  2  0  0  0  0  0  0  0  0  0
    0.8382   -5.9591    3.3412 C   0  0  0  0  0  0  0  0  0  0  0  0
    1.4069   -4.5547    3.6396 C   0  0  0  0  0  0  0  0  0  0  0  0
    2.9586   -4.4870    3.7502 C   0  0  2  0  0  0  0  0  0  0  0  0
    3.5780   -4.7899    2.3415 C   0  0  0  0  0  0  0  0  0  0  0  0
    3.4812   -3.0268    4.1980 C   0  0  2  0  0  0  0  0  0  0  0  0
    5.0278   -2.9156    4.0580 C   0  0  0  0  0  0  0  0  0  0  0  0
    2.8940   -1.9335    3.2880 C   0  0  0  0  0  0  0  0  0  0  0  0
    3.4425   -1.6171    2.2083 O   0  0  0  0  0  0  0  0  0  0  0  0
    1.6781   -1.1928    3.7420 C   0  0  0  0  0  0  0  0  0  0  0  0
    1.9564   -0.5136    5.1205 C   0  0  1  0  0  0  0  0  0  0  0  0
    3.0809    0.5887    5.1202 C   0  0  0  0  0  0  0  0  0  0  0  0
   -1.2506    0.7352    2.2173 H   0  0  0  0  0  0  0  0  0  0  0  0
   -2.0290    0.3989    3.7303 H   0  0  0  0  0  0  0  0  0  0  0  0
   -0.5476   -0.4561    3.3340 H   0  0  0  0  0  0  0  0  0  0  0  0
    1.5496    2.9030    3.5499 H   0  0  0  0  0  0  0  0  0  0  0  0
    0.6540    2.5137    2.1128 H   0  0  0  0  0  0  0  0  0  0  0  0
    1.6448    1.2706    2.8739 H   0  0  0  0  0  0  0  0  0  0  0  0
   -0.6235    3.8134    4.0914 H   0  0  0  0  0  0  0  0  0  0  0  0
   -1.8953    2.9477    3.2487 H   0  0  0  0  0  0  0  0  0  0  0  0
   -1.1472    2.1804    7.1469 H   0  0  0  0  0  0  0  0  0  0  0  0
   -2.2187    0.3068    5.3764 H   0  0  0  0  0  0  0  0  0  0  0  0
    0.7780    2.1444    5.7844 H   0  0  0  0  0  0  0  0  0  0  0  0
   -0.1583   -0.7766    5.5288 H   0  0  0  0  0  0  0  0  0  0  0  0
    2.8450   -0.5583    7.9539 H   0  0  0  0  0  0  0  0  0  0  0  0
    1.7951   -1.9923    8.1589 H   0  0  0  0  0  0  0  0  0  0  0  0
    4.7725   -3.8722    6.4087 H   0  0  0  0  0  0  0  0  0  0  0  0
    4.0534   -4.1536    8.4630 H   0  0  0  0  0  0  0  0  0  0  0  0
    4.4198   -5.6988    4.7834 H   0  0  0  0  0  0  0  0  0  0  0  0
    3.4676   -9.0149    5.4801 H   0  0  0  0  0  0  0  0  0  0  0  0
    2.5450   -8.0053    6.5548 H   0  0  0  0  0  0  0  0  0  0  0  0
    4.2103   -7.6138    6.1421 H   0  0  0  0  0  0  0  0  0  0  0  0
    3.2187   -7.2246    2.3769 H   0  0  0  0  0  0  0  0  0  0  0  0
    4.4796   -7.8788    3.3752 H   0  0  0  0  0  0  0  0  0  0  0  0
    3.2107   -9.5100    1.9697 H   0  0  0  0  0  0  0  0  0  0  0  0
    3.0688   -9.9407    3.6363 H   0  0  0  0  0  0  0  0  0  0  0  0
    1.0365   -8.4959    1.8935 H   0  0  0  0  0  0  0  0  0  0  0  0
    0.5910  -10.4620    1.6487 H   0  0  0  0  0  0  0  0  0  0  0  0
   -1.4797   -7.6871    4.4054 H   0  0  0  0  0  0  0  0  0  0  0  0
   -1.4686   -9.2325    3.5711 H   0  0  0  0  0  0  0  0  0  0  0  0
   -1.0884   -7.7904    2.6794 H   0  0  0  0  0  0  0  0  0  0  0  0
    0.3296   -8.9017    6.1541 H   0  0  0  0  0  0  0  0  0  0  0  0
    1.5194   -9.9287    5.3487 H   0  0  0  0  0  0  0  0  0  0  0  0
   -0.1640  -10.2227    5.1140 H   0  0  0  0  0  0  0  0  0  0  0  0
    0.7675   -6.7613    5.3034 H   0  0  0  0  0  0  0  0  0  0  0  0
    1.1020   -6.2645    2.3302 H   0  0  0  0  0  0  0  0  0  0  0  0
   -0.2434   -5.8558    3.3400 H   0  0  0  0  0  0  0  0  0  0  0  0
    1.0470   -3.8875    2.8569 H   0  0  0  0  0  0  0  0  0  0  0  0
    0.9499   -4.1964    4.5607 H   0  0  0  0  0  0  0  0  0  0  0  0
    3.8399   -3.9156    1.7564 H   0  0  0  0  0  0  0  0  0  0  0  0
    2.9042   -5.3149    1.6685 H   0  0  0  0  0  0  0  0  0  0  0  0
    4.5058   -5.3563    2.4316 H   0  0  0  0  0  0  0  0  0  0  0  0
    5.3718   -1.9914    4.5277 H   0  0  0  0  0  0  0  0  0  0  0  0
    5.3756   -2.8570    3.0218 H   0  0  0  0  0  0  0  0  0  0  0  0
    5.5791   -3.7438    4.5059 H   0  0  0  0  0  0  0  0  0  0  0  0
    1.4028   -0.5247    2.9498 H   0  0  0  0  0  0  0  0  0  0  0  0
    0.9010   -1.9740    3.8797 H   0  0  0  0  0  0  0  0  0  0  0  0
    2.9210    1.3927    4.3835 H   0  0  0  0  0  0  0  0  0  0  0  0
    4.0582    0.1035    4.9495 H   0  0  0  0  0  0  0  0  0  0  0  0
    3.1649    1.0191    6.1326 H   0  0  0  0  0  0  0  0  0  0  0  0
  1  2  1  0
  1 41  1  0
  1 42  1  0
  1 43  1  0
  2  8  1  0
  2  3  1  0
  2  4  1  0
  3 44  1  0
  3 45  1  0
  3 46  1  0
  4  5  1  0
  4 47  1  0
  4 48  1  0
  5  6  1  0
  6  7  1  0
  6  8  1  0
  6 49  1  1
  7 50  1  0
  8  9  1  0
  8 51  1  1
  9 39  1  0
  9 10  1  0
  9 52  1  6
 10 11  2  0
 10 12  1  0
 12 13  1  0
 12 53  1  0
 12 54  1  0
 13 39  1  0
 13 14  2  0
 14 34  1  0
 14 15  1  0
 15 16  1  0
 15 17  1  0
 15 55  1  6
 16 56  1  0
 17 18  2  0
 17 19  1  0
 19 32  1  0
 19 20  1  0
 19 57  1  1
 20 29  1  0
 20 21  1  1
 20 22  1  0
 21 58  1  0
 21 59  1  0
 21 60  1  0
 22 23  1  0
 22 61  1  0
 22 62  1  0
 23 24  1  0
 23 63  1  0
 23 64  1  0
 24 25  1  0
 24 26  1  0
 24 65  1  6
 25 66  1  0
 26 27  1  0
 26 28  1  0
 26 29  1  0
 27 67  1  0
 27 68  1  0
 27 69  1  0
 28 70  1  0
 28 71  1  0
 28 72  1  0
 29 30  1  0
 29 73  1  1
 30 31  1  0
 30 74  1  0
 30 75  1  0
 31 32  1  0
 31 76  1  0
 31 77  1  0
 32 33  1  6
 32 34  1  0
 33 78  1  0
 33 79  1  0
 33 80  1  0
 34 35  1  1
 34 36  1  0
 35 81  1  0
 35 82  1  0
 35 83  1  0
 36 37  2  0
 36 38  1  0
 38 39  1  0
 38 84  1  0
 38 85  1  0
 39 40  1  6
 40 86  1  0
 40 87  1  0
 40 88  1  0
M  END
>  <i_m_ct_stereo_status>  (70) 
1

>  <s_m_source_file>  (70) 
/var/tmp/pbs.5076255.sched01/tmp6mkrr40i/0ze8ciewu.sdf

>  <i_m_source_file_index>  (70) 
35

>  <i_lp_mmshare_version>  (70) 
48012

>  <i_f3d_flags>  (70) 
0

>  <s_epik_input>  (70) 
W0NIM11DMShbQ0gzXSlbQ0gyXU9bQ0BASF0oW09IXSlbQ0BIXTFbQ0BIXShDKD1PKVtDSDJdMilbQ0BdKFtDSDNdKShbQ0gyXUMzPU8pQzI9QyhbQ0BASF0oW09IXSlDND1PKVtDQEBdMyhbQ0gzXSlbQ0BAXShbQ0gzXSkoW0NAQEhdNFtDQF01NltDSDNdKVtDSDJdW0NIMl1bQ0BIXTZDKFtDSDNdKShbQ0gzXSlbQ0BIXShbT0hdKVtDSDJdW0NIMl01

>  <s_epik_cmdline>  (70) 
J2VwaWtfcHl0aG9uJywgJy1waHQnLCAnMi4wJywgJy1waCcsICc3LjAnLCAnLXRuJywgJzgnLCAnLW1hJywgJzIwMCcsICctaW1hZScsICc8aW5maWxlLm1hZT4nLCAnLW9tYWUnLCAnPG91dGZpbGUubWFlPic=

>  <r_lp_tautomer_probability>  (70) 
1

>  <r_epik_Ionization_Penalty>  (70) 
3.12406e-05

>  <r_epik_Ionization_Penalty_Charging>  (70) 
0

>  <r_epik_Ionization_Penalty_Neutral>  (70) 
3.12406e-05

>  <r_epik_State_Penalty>  (70) 
-0

>  <r_epik_Charging_Adjusted_Penalty>  (70) 
0

>  <i_epik_Tot_Q>  (70) 
0

>  <i_epik_Tot_abs_Q>  (70) 
0

>  <s_epik_Chemistry_Notes>  (70) 
This compound contains an acetal/aminal-like group ( X-CH(R)-Y where X, Y are N, S, or O) that may be acid/base labile, releasing an aldehyde.

>  <s_lp_Force_Field>  (70) 
OPLS3e

>  <r_lp_Energy>  (70) 
86.3185

>  <b_lp_Chiralities_Consistent>  (70) 
1

>  <s_lp_Variant>  (70) 
26:0-1

>  <s_i_glide_gridfile>  (70) 
pfpi4k_grid

>  <i_i_glide_lignum>  (70) 
35

>  <i_i_glide_rotatable_bonds>  (70) 
4

>  <r_i_docking_score>  (70) 
-2.67822

>  <r_i_glide_ligand_efficiency>  (70) 
-0.0669555

>  <r_i_glide_ligand_efficiency_sa>  (70) 
-0.228985

>  <r_i_glide_ligand_efficiency_ln>  (70) 
-0.571186

>  <r_i_glide_gscore>  (70) 
-2.67822

>  <r_i_glide_lipo>  (70) 
-0.0483693

>  <r_i_glide_hbond>  (70) 
-0.241968

>  <r_i_glide_metal>  (70) 
-0

>  <r_i_glide_rewards>  (70) 
0

>  <r_i_glide_evdw>  (70) 
-29.67

>  <r_i_glide_ecoul>  (70) 
-6.29772

>  <r_i_glide_erotb>  (70) 
0.0670092

>  <r_i_glide_esite>  (70) 
-0.0267348

>  <r_i_glide_emodel>  (70) 
-38.5252

>  <r_i_glide_energy>  (70) 
-35.9677

>  <r_i_glide_einternal>  (70) 
3.06613

>  <r_i_glide_intrahb_reward>  (70) 
-0

>  <i_i_glide_confnum>  (70) 
4

>  <i_i_glide_posenum>  (70) 
9

>  <r_i_glide_eff_state_penalty>  (70) 
0

>  <ligand_id>  (70) 
26

>  <original_smiles>  (70) 
CC1(C)COC(O)C1C1C(=O)CC2=C3C(O)C(=O)C4C5(C)CCC(O)C(C)(C)C5CCC4(C)C3(C)C(=O)CC21C

>  <smiles>  (70) 
[H]OC1([H])C(=O)C2([H])C(C([H])([H])[H])(C([H])([H])C([H])([H])C3([H])C(C([H])([H])[H])(C([H])([H])[H])C([H])(O[H])C([H])([H])C([H])([H])C23C([H])([H])[H])C2(C([H])([H])[H])C(=O)C([H])([H])C3(C([H])([H])[H])C(=C12)C([H])([H])C(=O)C3([H])C1([H])C([H])(O[H])OC([H])([H])C1(C([H])([H])[H])C([H])([H])[H]

$$$$
26:0:2
     RDKit          3D

 88 93  0  0  1  0  0  0  0  0999 V2000
    2.1007   -7.1735    1.3573 C   0  0  0  0  0  0  0  0  0  0  0  0
    2.7633   -8.2868    2.2070 C   0  0  0  0  0  0  0  0  0  0  0  0
    1.7749   -8.9070    3.2219 C   0  0  0  0  0  0  0  0  0  0  0  0
    3.2772   -9.4101    1.2934 C   0  0  0  0  0  0  0  0  0  0  0  0
    4.6030   -9.0692    0.8770 O   0  0  0  0  0  0  0  0  0  0  0  0
    5.1077   -8.0191    1.6365 C   0  0  1  0  0  0  0  0  0  0  0  0
    5.2004   -6.8387    0.8720 O   0  0  0  0  0  0  0  0  0  0  0  0
    4.1079   -7.8438    2.8286 C   0  0  1  0  0  0  0  0  0  0  0  0
    4.1450   -6.4204    3.4923 C   0  0  2  0  0  0  0  0  0  0  0  0
    5.4875   -6.0028    4.0807 C   0  0  0  0  0  0  0  0  0  0  0  0
    6.5974   -6.2611    3.5884 O   0  0  0  0  0  0  0  0  0  0  0  0
    5.3332   -5.1818    5.3326 C   0  0  0  0  0  0  0  0  0  0  0  0
    3.8258   -4.9779    5.4187 C   0  0  0  0  0  0  0  0  0  0  0  0
    3.1368   -3.9617    6.0278 C   0  0  0  0  0  0  0  0  0  0  0  0
    3.7569   -2.8209    6.8376 C   0  0  1  0  0  0  0  0  0  0  0  0
    5.1551   -2.9203    7.0416 O   0  0  0  0  0  0  0  0  0  0  0  0
    3.3724   -1.5310    6.1240 C   0  0  0  0  0  0  0  0  0  0  0  0
    4.2285   -0.8451    5.5377 O   0  0  0  0  0  0  0  0  0  0  0  0
    1.8473   -1.2029    6.1266 C   0  0  1  0  0  0  0  0  0  0  0  0
    1.5099    0.2670    5.5877 C   0  0  2  0  0  0  0  0  0  0  0  0
    2.4387    1.2564    6.3715 C   0  0  0  0  0  0  0  0  0  0  0  0
    0.0606    0.7534    5.9181 C   0  0  0  0  0  0  0  0  0  0  0  0
   -0.3328    2.1076    5.3037 C   0  0  0  0  0  0  0  0  0  0  0  0
   -0.1150    2.1374    3.7864 C   0  0  1  0  0  0  0  0  0  0  0  0
   -0.4201    3.4557    3.4092 O   0  0  0  0  0  0  0  0  0  0  0  0
    1.3146    1.7040    3.3490 C   0  0  0  0  0  0  0  0  0  0  0  0
    1.3349    1.5721    1.8048 C   0  0  0  0  0  0  0  0  0  0  0  0
    2.3556    2.8105    3.6800 C   0  0  0  0  0  0  0  0  0  0  0  0
    1.6961    0.3257    4.0197 C   0  0  2  0  0  0  0  0  0  0  0  0
    0.9541   -0.8800    3.3629 C   0  0  0  0  0  0  0  0  0  0  0  0
    1.2942   -2.2727    3.9413 C   0  0  0  0  0  0  0  0  0  0  0  0
    1.0664   -2.4252    5.4777 C   0  0  2  0  0  0  0  0  0  0  0  0
   -0.4720   -2.3386    5.7637 C   0  0  0  0  0  0  0  0  0  0  0  0
    1.5775   -3.8534    6.0338 C   0  0  2  0  0  0  0  0  0  0  0  0
    1.1107   -4.0842    7.5129 C   0  0  0  0  0  0  0  0  0  0  0  0
    0.9630   -5.0127    5.2329 C   0  0  0  0  0  0  0  0  0  0  0  0
   -0.1570   -5.4774    5.4722 O   0  0  0  0  0  0  0  0  0  0  0  0
    1.7976   -5.6126    4.1381 C   0  0  0  0  0  0  0  0  0  0  0  0
    3.1558   -6.1243    4.6737 C   0  0  1  0  0  0  0  0  0  0  0  0
    3.0640   -7.2757    5.7221 C   0  0  0  0  0  0  0  0  0  0  0  0
    1.1553   -7.5264    0.9632 H   0  0  0  0  0  0  0  0  0  0  0  0
    2.6868   -6.9655    0.4693 H   0  0  0  0  0  0  0  0  0  0  0  0
    1.9345   -6.2535    1.8785 H   0  0  0  0  0  0  0  0  0  0  0  0
    2.2580   -9.6563    3.8646 H   0  0  0  0  0  0  0  0  0  0  0  0
    0.9999   -9.4734    2.7211 H   0  0  0  0  0  0  0  0  0  0  0  0
    1.3351   -8.1862    3.8873 H   0  0  0  0  0  0  0  0  0  0  0  0
    3.3367  -10.3681    1.8134 H   0  0  0  0  0  0  0  0  0  0  0  0
    2.6113   -9.5636    0.4508 H   0  0  0  0  0  0  0  0  0  0  0  0
    6.1305   -8.2799    1.9376 H   0  0  0  0  0  0  0  0  0  0  0  0
    4.3217   -6.5899    0.6339 H   0  0  0  0  0  0  0  0  0  0  0  0
    4.4483   -8.5758    3.5627 H   0  0  0  0  0  0  0  0  0  0  0  0
    3.9667   -5.6753    2.7231 H   0  0  0  0  0  0  0  0  0  0  0  0
    5.6843   -5.7798    6.1726 H   0  0  0  0  0  0  0  0  0  0  0  0
    5.9278   -4.2723    5.2623 H   0  0  0  0  0  0  0  0  0  0  0  0
    3.3121   -2.8188    7.8400 H   0  0  0  0  0  0  0  0  0  0  0  0
    5.3211   -3.7319    7.4986 H   0  0  0  0  0  0  0  0  0  0  0  0
    1.5750   -1.2003    7.1848 H   0  0  0  0  0  0  0  0  0  0  0  0
    2.0060    2.2360    6.5524 H   0  0  0  0  0  0  0  0  0  0  0  0
    3.3872    1.4320    5.8636 H   0  0  0  0  0  0  0  0  0  0  0  0
    2.6684    0.8785    7.3707 H   0  0  0  0  0  0  0  0  0  0  0  0
   -0.6891    0.0928    5.5163 H   0  0  0  0  0  0  0  0  0  0  0  0
   -0.0973    0.7782    6.9982 H   0  0  0  0  0  0  0  0  0  0  0  0
   -1.3884    2.2987    5.5058 H   0  0  0  0  0  0  0  0  0  0  0  0
    0.1904    2.9395    5.7721 H   0  0  0  0  0  0  0  0  0  0  0  0
   -0.8449    1.4720    3.3235 H   0  0  0  0  0  0  0  0  0  0  0  0
   -0.1926    3.5607    2.4619 H   0  0  0  0  0  0  0  0  0  0  0  0
    2.2620    1.1127    1.4524 H   0  0  0  0  0  0  0  0  0  0  0  0
    1.2615    2.5427    1.3261 H   0  0  0  0  0  0  0  0  0  0  0  0
    0.4936    0.9847    1.4260 H   0  0  0  0  0  0  0  0  0  0  0  0
    3.3769    2.4255    3.6462 H   0  0  0  0  0  0  0  0  0  0  0  0
    2.1942    3.2600    4.6576 H   0  0  0  0  0  0  0  0  0  0  0  0
    2.3079    3.6410    2.9729 H   0  0  0  0  0  0  0  0  0  0  0  0
    2.7505    0.1678    3.7958 H   0  0  0  0  0  0  0  0  0  0  0  0
   -0.1225   -0.7157    3.3963 H   0  0  0  0  0  0  0  0  0  0  0  0
    1.1985   -0.9363    2.3007 H   0  0  0  0  0  0  0  0  0  0  0  0
    0.6991   -2.9974    3.3842 H   0  0  0  0  0  0  0  0  0  0  0  0
    2.3351   -2.4847    3.6946 H   0  0  0  0  0  0  0  0  0  0  0  0
   -0.9796   -3.2901    5.8524 H   0  0  0  0  0  0  0  0  0  0  0  0
   -1.0410   -1.8581    4.9708 H   0  0  0  0  0  0  0  0  0  0  0  0
   -0.6673   -1.8300    6.7067 H   0  0  0  0  0  0  0  0  0  0  0  0
    1.6130   -4.9658    7.9160 H   0  0  0  0  0  0  0  0  0  0  0  0
    0.0415   -4.2931    7.6031 H   0  0  0  0  0  0  0  0  0  0  0  0
    1.3072   -3.2473    8.1808 H   0  0  0  0  0  0  0  0  0  0  0  0
    1.2143   -6.3690    3.6326 H   0  0  0  0  0  0  0  0  0  0  0  0
    1.9787   -4.7995    3.4236 H   0  0  0  0  0  0  0  0  0  0  0  0
    2.5143   -8.1433    5.4046 H   0  0  0  0  0  0  0  0  0  0  0  0
    2.6362   -6.8925    6.6621 H   0  0  0  0  0  0  0  0  0  0  0  0
    4.0719   -7.5750    6.0433 H   0  0  0  0  0  0  0  0  0  0  0  0
  1  2  1  0
  1 41  1  0
  1 42  1  0
  1 43  1  0
  2  8  1  0
  2  3  1  0
  2  4  1  0
  3 44  1  0
  3 45  1  0
  3 46  1  0
  4  5  1  0
  4 47  1  0
  4 48  1  0
  5  6  1  0
  6  7  1  0
  6  8  1  0
  6 49  1  1
  7 50  1  0
  8  9  1  0
  8 51  1  1
  9 39  1  0
  9 10  1  0
  9 52  1  6
 10 11  2  0
 10 12  1  0
 12 13  1  0
 12 53  1  0
 12 54  1  0
 13 39  1  0
 13 14  2  0
 14 34  1  0
 14 15  1  0
 15 16  1  0
 15 17  1  0
 15 55  1  1
 16 56  1  0
 17 18  2  0
 17 19  1  0
 19 32  1  0
 19 20  1  0
 19 57  1  1
 20 29  1  0
 20 21  1  1
 20 22  1  0
 21 58  1  0
 21 59  1  0
 21 60  1  0
 22 23  1  0
 22 61  1  0
 22 62  1  0
 23 24  1  0
 23 63  1  0
 23 64  1  0
 24 25  1  0
 24 26  1  0
 24 65  1  6
 25 66  1  0
 26 27  1  0
 26 28  1  0
 26 29  1  0
 27 67  1  0
 27 68  1  0
 27 69  1  0
 28 70  1  0
 28 71  1  0
 28 72  1  0
 29 30  1  0
 29 73  1  1
 30 31  1  0
 30 74  1  0
 30 75  1  0
 31 32  1  0
 31 76  1  0
 31 77  1  0
 32 33  1  6
 32 34  1  0
 33 78  1  0
 33 79  1  0
 33 80  1  0
 34 35  1  1
 34 36  1  0
 35 81  1  0
 35 82  1  0
 35 83  1  0
 36 37  2  0
 36 38  1  0
 38 39  1  0
 38 84  1  0
 38 85  1  0
 39 40  1  1
 40 86  1  0
 40 87  1  0
 40 88  1  0
M  END
>  <i_m_ct_stereo_status>  (71) 
1

>  <s_m_source_file>  (71) 
/var/tmp/pbs.5076255.sched01/tmp6mkrr40i/0ze8ciewu.sdf

>  <i_m_source_file_index>  (71) 
35

>  <i_lp_mmshare_version>  (71) 
48012

>  <i_f3d_flags>  (71) 
0

>  <s_epik_input>  (71) 
W0NIM11DMShbQ0gzXSlbQ0gyXU9bQ0BASF0oW09IXSlbQ0BIXTFbQ0BIXShDKD1PKVtDSDJdMilbQ0BdKFtDSDNdKShbQ0gyXUMzPU8pQzI9QyhbQ0BASF0oW09IXSlDND1PKVtDQEBdMyhbQ0gzXSlbQ0BAXShbQ0gzXSkoW0NAQEhdNFtDQF01NltDSDNdKVtDSDJdW0NIMl1bQ0BIXTZDKFtDSDNdKShbQ0gzXSlbQ0BIXShbT0hdKVtDSDJdW0NIMl01

>  <s_epik_cmdline>  (71) 
J2VwaWtfcHl0aG9uJywgJy1waHQnLCAnMi4wJywgJy1waCcsICc3LjAnLCAnLXRuJywgJzgnLCAnLW1hJywgJzIwMCcsICctaW1hZScsICc8aW5maWxlLm1hZT4nLCAnLW9tYWUnLCAnPG91dGZpbGUubWFlPic=

>  <r_lp_tautomer_probability>  (71) 
1

>  <r_epik_Ionization_Penalty>  (71) 
3.12406e-05

>  <r_epik_Ionization_Penalty_Charging>  (71) 
0

>  <r_epik_Ionization_Penalty_Neutral>  (71) 
3.12406e-05

>  <r_epik_State_Penalty>  (71) 
-0

>  <r_epik_Charging_Adjusted_Penalty>  (71) 
0

>  <i_epik_Tot_Q>  (71) 
0

>  <i_epik_Tot_abs_Q>  (71) 
0

>  <s_epik_Chemistry_Notes>  (71) 
This compound contains an acetal/aminal-like group ( X-CH(R)-Y where X, Y are N, S, or O) that may be acid/base labile, releasing an aldehyde.

>  <s_lp_Force_Field>  (71) 
OPLS3e

>  <r_lp_Energy>  (71) 
86.3185

>  <b_lp_Chiralities_Consistent>  (71) 
1

>  <s_lp_Variant>  (71) 
26:0-1

>  <s_i_glide_gridfile>  (71) 
pfpi4k_grid

>  <i_i_glide_lignum>  (71) 
35

>  <i_i_glide_rotatable_bonds>  (71) 
4

>  <r_i_docking_score>  (71) 
-2.41979

>  <r_i_glide_ligand_efficiency>  (71) 
-0.0604949

>  <r_i_glide_ligand_efficiency_sa>  (71) 
-0.206889

>  <r_i_glide_ligand_efficiency_ln>  (71) 
-0.516071

>  <r_i_glide_gscore>  (71) 
-2.41979

>  <r_i_glide_lipo>  (71) 
-0.0240323

>  <r_i_glide_hbond>  (71) 
-0.16

>  <r_i_glide_metal>  (71) 
-0

>  <r_i_glide_rewards>  (71) 
-0.0790198

>  <r_i_glide_evdw>  (71) 
-29.4012

>  <r_i_glide_ecoul>  (71) 
-5.01398

>  <r_i_glide_erotb>  (71) 
0.0670092

>  <r_i_glide_esite>  (71) 
-0.00159397

>  <r_i_glide_emodel>  (71) 
-37.2341

>  <r_i_glide_energy>  (71) 
-34.4152

>  <r_i_glide_einternal>  (71) 
0.816389

>  <r_i_glide_intrahb_reward>  (71) 
-0

>  <i_i_glide_confnum>  (71) 
2

>  <i_i_glide_posenum>  (71) 
36

>  <r_i_glide_eff_state_penalty>  (71) 
0

>  <ligand_id>  (71) 
26

>  <original_smiles>  (71) 
CC1(C)COC(O)C1C1C(=O)CC2=C3C(O)C(=O)C4C5(C)CCC(O)C(C)(C)C5CCC4(C)C3(C)C(=O)CC21C

>  <smiles>  (71) 
[H]OC1([H])C(=O)C2([H])C(C([H])([H])[H])(C([H])([H])C([H])([H])C3([H])C(C([H])([H])[H])(C([H])([H])[H])C([H])(O[H])C([H])([H])C([H])([H])C23C([H])([H])[H])C2(C([H])([H])[H])C(=O)C([H])([H])C3(C([H])([H])[H])C(=C12)C([H])([H])C(=O)C3([H])C1([H])C([H])(O[H])OC([H])([H])C1(C([H])([H])[H])C([H])([H])[H]

$$$$
27:0:0
     RDKit          3D

 31 33  0  0  1  0  0  0  0  0999 V2000
    3.1424    0.4042    1.9861 C   0  0  0  0  0  0  0  0  0  0  0  0
    4.0085   -0.5557    1.3696 O   0  0  0  0  0  0  0  0  0  0  0  0
    3.9923   -1.8517    1.8396 C   0  0  0  0  0  0  0  0  0  0  0  0
    3.3723   -2.0564    2.9115 O   0  0  0  0  0  0  0  0  0  0  0  0
    4.7176   -2.7429    1.0397 C   0  0  0  0  0  0  0  0  0  0  0  0
    4.9423   -4.1824    1.4201 C   0  0  0  0  0  0  0  0  0  0  0  0
    3.8703   -4.9208    2.1891 C   0  0  0  0  0  0  0  0  0  0  0  0
    5.9984   -4.8251    1.0755 N   0  0  0  0  0  0  0  0  0  0  0  0
    7.0496   -4.1728    0.4844 C   0  0  0  0  0  0  0  0  0  0  0  0
    8.3343   -4.4677    0.3997 N   0  0  0  0  0  0  0  0  0  0  0  0
    8.8966   -3.3787   -0.2471 N   0  0  0  0  0  0  0  0  0  0  0  0
    8.0045   -2.4824   -0.5423 N   0  0  0  0  0  0  0  0  0  0  0  0
    6.8375   -2.9750   -0.0763 N   0  0  0  0  0  0  0  0  0  0  0  0
    5.5652   -2.2921   -0.1574 C   0  0  1  0  0  0  0  0  0  0  0  0
    4.8020   -2.5840   -1.4718 C   0  0  0  0  0  0  0  0  0  0  0  0
    3.4183   -2.3231   -1.5497 C   0  0  0  0  0  0  0  0  0  0  0  0
    2.7070   -2.6505   -2.7185 C   0  0  0  0  0  0  0  0  0  0  0  0
    3.4143   -3.2086   -3.7879 C   0  0  0  0  0  0  0  0  0  0  0  0
    4.7389   -3.4528   -3.7520 N   0  0  0  0  0  0  0  0  0  0  0  0
    5.4132   -3.1524   -2.6196 C   0  0  0  0  0  0  0  0  0  0  0  0
    3.1702    1.3454    1.4284 H   0  0  0  0  0  0  0  0  0  0  0  0
    3.4342    0.6261    3.0150 H   0  0  0  0  0  0  0  0  0  0  0  0
    2.1061    0.0656    1.9722 H   0  0  0  0  0  0  0  0  0  0  0  0
    2.8811   -4.5561    1.9087 H   0  0  0  0  0  0  0  0  0  0  0  0
    4.0139   -4.8122    3.2651 H   0  0  0  0  0  0  0  0  0  0  0  0
    3.9152   -5.9798    1.9353 H   0  0  0  0  0  0  0  0  0  0  0  0
    5.7653   -1.2238   -0.1084 H   0  0  0  0  0  0  0  0  0  0  0  0
    2.8892   -1.8948   -0.7109 H   0  0  0  0  0  0  0  0  0  0  0  0
    1.6521   -2.4703   -2.7787 H   0  0  0  0  0  0  0  0  0  0  0  0
    2.9066   -3.4518   -4.7053 H   0  0  0  0  0  0  0  0  0  0  0  0
    6.4680   -3.3893   -2.6471 H   0  0  0  0  0  0  0  0  0  0  0  0
  1  2  1  0
  1 21  1  0
  1 22  1  0
  1 23  1  0
  2  3  1  0
  3  4  1  0
  3  5  2  0
  5 14  1  0
  5  6  1  0
  6  7  1  0
  6  8  2  0
  7 24  1  0
  7 25  1  0
  7 26  1  0
  8  9  1  0
  9 13  1  0
  9 10  2  0
 10 11  1  0
 11 12  2  0
 12 13  1  0
 13 14  1  0
 14 15  1  0
 14 27  1  1
 15 20  1  0
 15 16  2  0
 16 17  1  0
 16 28  1  0
 17 18  2  0
 17 29  1  0
 18 19  1  0
 18 30  1  0
 19 20  2  0
 20 31  1  0
M  CHG  1   4  -1
M  END
>  <i_m_ct_stereo_status>  (72) 
1

>  <s_m_source_file>  (72) 
/var/tmp/pbs.5076255.sched01/tmp6mkrr40i/0ze8ciewu.sdf

>  <i_m_source_file_index>  (72) 
36

>  <i_lp_mmshare_version>  (72) 
48012

>  <i_f3d_flags>  (72) 
0

>  <s_epik_input>  (72) 
W0NIM11PQyg9TylbQ0BIXShDKD1OMSlbQ0gzXSlbQ0BASF0obihjMTIpbm5uMiljM1tjSF1bY0hdW2NIXW5bY0hdMw==

>  <s_epik_cmdline>  (72) 
J2VwaWtfcHl0aG9uJywgJy1waHQnLCAnMi4wJywgJy1waCcsICc3LjAnLCAnLXRuJywgJzgnLCAnLW1hJywgJzIwMCcsICctaW1hZScsICc8aW5maWxlLm1hZT4nLCAnLW9tYWUnLCAnPG91dGZpbGUubWFlPic=

>  <r_epik_Ionization_Penalty>  (72) 
0.000567066

>  <r_epik_Ionization_Penalty_Charging>  (72) 
0

>  <r_epik_Ionization_Penalty_Neutral>  (72) 
0.000567066

>  <r_epik_State_Penalty>  (72) 
0.00141837

>  <r_epik_Charging_Adjusted_Penalty>  (72) 
0.00141837

>  <i_epik_Tot_Q>  (72) 
-1

>  <i_epik_Tot_abs_Q>  (72) 
1

>  <s_epik_Chemistry_Notes>  (72) 
This compound has an ester and may undergo hydrolysis at high or low pH. This compound has an imine and may undergo hydrolysis.

>  <s_lp_Force_Field>  (72) 
OPLS3e

>  <r_lp_Energy>  (72) 
37.9425

>  <b_lp_Chiralities_Consistent>  (72) 
1

>  <s_lp_Variant>  (72) 
27:0-1

>  <s_i_glide_gridfile>  (72) 
pfpi4k_grid

>  <i_i_glide_lignum>  (72) 
36

>  <i_i_glide_rotatable_bonds>  (72) 
2

>  <r_i_docking_score>  (72) 
-3.58744

>  <r_i_glide_ligand_efficiency>  (72) 
-0.179372

>  <r_i_glide_ligand_efficiency_sa>  (72) 
-0.486891

>  <r_i_glide_ligand_efficiency_ln>  (72) 
-0.897818

>  <r_i_glide_gscore>  (72) 
-3.58744

>  <r_i_glide_lipo>  (72) 
-0.488187

>  <r_i_glide_hbond>  (72) 
0

>  <r_i_glide_metal>  (72) 
-0

>  <r_i_glide_rewards>  (72) 
-1.89738

>  <r_i_glide_evdw>  (72) 
-27.9518

>  <r_i_glide_ecoul>  (72) 
-1.62735

>  <r_i_glide_erotb>  (72) 
0.486572

>  <r_i_glide_esite>  (72) 
-0.0467544

>  <r_i_glide_emodel>  (72) 
-34.0054

>  <r_i_glide_energy>  (72) 
-29.5791

>  <r_i_glide_einternal>  (72) 
4.56748

>  <r_i_glide_intrahb_reward>  (72) 
-0

>  <i_i_glide_confnum>  (72) 
1

>  <i_i_glide_posenum>  (72) 
2

>  <r_i_glide_eff_state_penalty>  (72) 
0

>  <ligand_id>  (72) 
27

>  <original_smiles>  (72) 
COC(=O)C1C(C)=Nc2nnnn2C1c1cccnc1

>  <smiles>  (72) 
[H]c1nc([H])c(C2([H])C(=C([O-])OC([H])([H])[H])C(C([H])([H])[H])=Nc3nnnn32)c([H])c1[H]

$$$$
27:0:1
     RDKit          3D

 31 33  0  0  1  0  0  0  0  0999 V2000
    2.4124   -1.3889    2.8375 C   0  0  0  0  0  0  0  0  0  0  0  0
    3.4659   -1.9342    2.0286 O   0  0  0  0  0  0  0  0  0  0  0  0
    3.7567   -3.2778    2.1308 C   0  0  0  0  0  0  0  0  0  0  0  0
    3.1944   -3.9066    3.0605 O   0  0  0  0  0  0  0  0  0  0  0  0
    4.6895   -3.7201    1.1830 C   0  0  0  0  0  0  0  0  0  0  0  0
    5.2655   -5.1081    1.2072 C   0  0  0  0  0  0  0  0  0  0  0  0
    4.4006   -6.2617    1.6612 C   0  0  0  0  0  0  0  0  0  0  0  0
    6.4603   -5.3605    0.8123 N   0  0  0  0  0  0  0  0  0  0  0  0
    7.3269   -4.3432    0.4943 C   0  0  0  0  0  0  0  0  0  0  0  0
    8.6400   -4.2960    0.4185 N   0  0  0  0  0  0  0  0  0  0  0  0
    8.9287   -2.9743    0.1125 N   0  0  0  0  0  0  0  0  0  0  0  0
    7.8474   -2.2652    0.0028 N   0  0  0  0  0  0  0  0  0  0  0  0
    6.8334   -3.1214    0.2560 N   0  0  0  0  0  0  0  0  0  0  0  0
    5.4337   -2.7655    0.2435 C   0  0  1  0  0  0  0  0  0  0  0  0
    4.8048   -2.8426   -1.1599 C   0  0  0  0  0  0  0  0  0  0  0  0
    3.4415   -2.5038   -1.3386 C   0  0  0  0  0  0  0  0  0  0  0  0
    2.8549   -2.6526   -2.6104 C   0  0  0  0  0  0  0  0  0  0  0  0
    3.6524   -3.1204   -3.6622 C   0  0  0  0  0  0  0  0  0  0  0  0
    4.9490   -3.4451   -3.5220 N   0  0  0  0  0  0  0  0  0  0  0  0
    5.5069   -3.3056   -2.3020 C   0  0  0  0  0  0  0  0  0  0  0  0
    2.2140   -0.3508    2.5553 H   0  0  0  0  0  0  0  0  0  0  0  0
    2.6641   -1.3991    3.9025 H   0  0  0  0  0  0  0  0  0  0  0  0
    1.4825   -1.9432    2.6902 H   0  0  0  0  0  0  0  0  0  0  0  0
    3.3548   -6.0759    1.4097 H   0  0  0  0  0  0  0  0  0  0  0  0
    4.5001   -6.4152    2.7357 H   0  0  0  0  0  0  0  0  0  0  0  0
    4.7105   -7.1708    1.1453 H   0  0  0  0  0  0  0  0  0  0  0  0
    5.3653   -1.7401    0.6011 H   0  0  0  0  0  0  0  0  0  0  0  0
    2.8477   -2.1689   -0.4998 H   0  0  0  0  0  0  0  0  0  0  0  0
    1.8180   -2.4006   -2.7611 H   0  0  0  0  0  0  0  0  0  0  0  0
    3.2388   -3.2308   -4.6461 H   0  0  0  0  0  0  0  0  0  0  0  0
    6.5470   -3.6049   -2.2535 H   0  0  0  0  0  0  0  0  0  0  0  0
  1  2  1  0
  1 21  1  0
  1 22  1  0
  1 23  1  0
  2  3  1  0
  3  4  1  0
  3  5  2  0
  5 14  1  0
  5  6  1  0
  6  7  1  0
  6  8  2  0
  7 24  1  0
  7 25  1  0
  7 26  1  0
  8  9  1  0
  9 13  1  0
  9 10  2  0
 10 11  1  0
 11 12  2  0
 12 13  1  0
 13 14  1  0
 14 15  1  0
 14 27  1  1
 15 20  1  0
 15 16  2  0
 16 17  1  0
 16 28  1  0
 17 18  2  0
 17 29  1  0
 18 19  1  0
 18 30  1  0
 19 20  2  0
 20 31  1  0
M  CHG  1   4  -1
M  END
>  <i_m_ct_stereo_status>  (73) 
1

>  <s_m_source_file>  (73) 
/var/tmp/pbs.5076255.sched01/tmp6mkrr40i/0ze8ciewu.sdf

>  <i_m_source_file_index>  (73) 
36

>  <i_lp_mmshare_version>  (73) 
48012

>  <i_f3d_flags>  (73) 
0

>  <s_epik_input>  (73) 
W0NIM11PQyg9TylbQ0BIXShDKD1OMSlbQ0gzXSlbQ0BASF0obihjMTIpbm5uMiljM1tjSF1bY0hdW2NIXW5bY0hdMw==

>  <s_epik_cmdline>  (73) 
J2VwaWtfcHl0aG9uJywgJy1waHQnLCAnMi4wJywgJy1waCcsICc3LjAnLCAnLXRuJywgJzgnLCAnLW1hJywgJzIwMCcsICctaW1hZScsICc8aW5maWxlLm1hZT4nLCAnLW9tYWUnLCAnPG91dGZpbGUubWFlPic=

>  <r_epik_Ionization_Penalty>  (73) 
0.000567066

>  <r_epik_Ionization_Penalty_Charging>  (73) 
0

>  <r_epik_Ionization_Penalty_Neutral>  (73) 
0.000567066

>  <r_epik_State_Penalty>  (73) 
0.00141837

>  <r_epik_Charging_Adjusted_Penalty>  (73) 
0.00141837

>  <i_epik_Tot_Q>  (73) 
-1

>  <i_epik_Tot_abs_Q>  (73) 
1

>  <s_epik_Chemistry_Notes>  (73) 
This compound has an ester and may undergo hydrolysis at high or low pH. This compound has an imine and may undergo hydrolysis.

>  <s_lp_Force_Field>  (73) 
OPLS3e

>  <r_lp_Energy>  (73) 
37.9425

>  <b_lp_Chiralities_Consistent>  (73) 
1

>  <s_lp_Variant>  (73) 
27:0-1

>  <s_i_glide_gridfile>  (73) 
pfpi4k_grid

>  <i_i_glide_lignum>  (73) 
36

>  <i_i_glide_rotatable_bonds>  (73) 
2

>  <r_i_docking_score>  (73) 
-3.54146

>  <r_i_glide_ligand_efficiency>  (73) 
-0.177073

>  <r_i_glide_ligand_efficiency_sa>  (73) 
-0.48065

>  <r_i_glide_ligand_efficiency_ln>  (73) 
-0.88631

>  <r_i_glide_gscore>  (73) 
-3.54146

>  <r_i_glide_lipo>  (73) 
-0.528594

>  <r_i_glide_hbond>  (73) 
0

>  <r_i_glide_metal>  (73) 
-0

>  <r_i_glide_rewards>  (73) 
-1.99493

>  <r_i_glide_evdw>  (73) 
-27.314

>  <r_i_glide_ecoul>  (73) 
-0.870255

>  <r_i_glide_erotb>  (73) 
0.486572

>  <r_i_glide_esite>  (73) 
-0.00826488

>  <r_i_glide_emodel>  (73) 
-32.5183

>  <r_i_glide_energy>  (73) 
-28.1842

>  <r_i_glide_einternal>  (73) 
4.57414

>  <r_i_glide_intrahb_reward>  (73) 
-0

>  <i_i_glide_confnum>  (73) 
2

>  <i_i_glide_posenum>  (73) 
12

>  <r_i_glide_eff_state_penalty>  (73) 
0

>  <ligand_id>  (73) 
27

>  <original_smiles>  (73) 
COC(=O)C1C(C)=Nc2nnnn2C1c1cccnc1

>  <smiles>  (73) 
[H]c1nc([H])c(C2([H])C(=C([O-])OC([H])([H])[H])C(C([H])([H])[H])=Nc3nnnn32)c([H])c1[H]

$$$$
27:0:2
     RDKit          3D

 31 33  0  0  1  0  0  0  0  0999 V2000
    1.8036   -2.6084    2.9932 C   0  0  0  0  0  0  0  0  0  0  0  0
    2.8400   -2.8554    2.0282 O   0  0  0  0  0  0  0  0  0  0  0  0
    3.3701   -4.1262    1.9250 C   0  0  0  0  0  0  0  0  0  0  0  0
    2.9213   -4.9883    2.7230 O   0  0  0  0  0  0  0  0  0  0  0  0
    4.3911   -4.2346    0.9751 C   0  0  0  0  0  0  0  0  0  0  0  0
    5.2204   -5.4792    0.8377 C   0  0  0  0  0  0  0  0  0  0  0  0
    4.5650   -6.8281    1.0415 C   0  0  0  0  0  0  0  0  0  0  0  0
    6.4593   -5.4429    0.5073 N   0  0  0  0  0  0  0  0  0  0  0  0
    7.1205   -4.2517    0.3826 C   0  0  0  0  0  0  0  0  0  0  0  0
    8.4204   -3.9590    0.3500 N   0  0  0  0  0  0  0  0  0  0  0  0
    8.4580   -2.5779    0.2199 N   0  0  0  0  0  0  0  0  0  0  0  0
    7.2592   -2.0638    0.1714 N   0  0  0  0  0  0  0  0  0  0  0  0
    6.4133   -3.1204    0.2788 N   0  0  0  0  0  0  0  0  0  0  0  0
    4.9708   -3.0266    0.2315 C   0  0  1  0  0  0  0  0  0  0  0  0
    4.4101   -2.9829   -1.1985 C   0  0  0  0  0  0  0  0  0  0  0  0
    3.0181   -2.7984   -1.3931 C   0  0  0  0  0  0  0  0  0  0  0  0
    2.4955   -2.8337   -2.6979 C   0  0  0  0  0  0  0  0  0  0  0  0
    3.3763   -3.0479   -3.7658 C   0  0  0  0  0  0  0  0  0  0  0  0
    4.7007   -3.2267   -3.6080 N   0  0  0  0  0  0  0  0  0  0  0  0
    5.1967   -3.1941   -2.3534 C   0  0  0  0  0  0  0  0  0  0  0  0
    1.3961   -1.6046    2.8548 H   0  0  0  0  0  0  0  0  0  0  0  0
    2.1799   -2.6786    4.0167 H   0  0  0  0  0  0  0  0  0  0  0  0
    0.9729   -3.3063    2.8799 H   0  0  0  0  0  0  0  0  0  0  0  0
    3.5107   -6.7943    0.7605 H   0  0  0  0  0  0  0  0  0  0  0  0
    4.6670   -7.1465    2.0784 H   0  0  0  0  0  0  0  0  0  0  0  0
    5.0470   -7.5682    0.4008 H   0  0  0  0  0  0  0  0  0  0  0  0
    4.7050   -2.0963    0.7412 H   0  0  0  0  0  0  0  0  0  0  0  0
    2.3612   -2.6567   -0.5480 H   0  0  0  0  0  0  0  0  0  0  0  0
    1.4391   -2.6980   -2.8716 H   0  0  0  0  0  0  0  0  0  0  0  0
    3.0141   -3.0618   -4.7760 H   0  0  0  0  0  0  0  0  0  0  0  0
    6.2639   -3.3707   -2.2955 H   0  0  0  0  0  0  0  0  0  0  0  0
  1  2  1  0
  1 21  1  0
  1 22  1  0
  1 23  1  0
  2  3  1  0
  3  4  1  0
  3  5  2  0
  5 14  1  0
  5  6  1  0
  6  7  1  0
  6  8  2  0
  7 24  1  0
  7 25  1  0
  7 26  1  0
  8  9  1  0
  9 13  1  0
  9 10  2  0
 10 11  1  0
 11 12  2  0
 12 13  1  0
 13 14  1  0
 14 15  1  0
 14 27  1  1
 15 20  1  0
 15 16  2  0
 16 17  1  0
 16 28  1  0
 17 18  2  0
 17 29  1  0
 18 19  1  0
 18 30  1  0
 19 20  2  0
 20 31  1  0
M  CHG  1   4  -1
M  END
>  <i_m_ct_stereo_status>  (74) 
1

>  <s_m_source_file>  (74) 
/var/tmp/pbs.5076255.sched01/tmp6mkrr40i/0ze8ciewu.sdf

>  <i_m_source_file_index>  (74) 
36

>  <i_lp_mmshare_version>  (74) 
48012

>  <i_f3d_flags>  (74) 
0

>  <s_epik_input>  (74) 
W0NIM11PQyg9TylbQ0BIXShDKD1OMSlbQ0gzXSlbQ0BASF0obihjMTIpbm5uMiljM1tjSF1bY0hdW2NIXW5bY0hdMw==

>  <s_epik_cmdline>  (74) 
J2VwaWtfcHl0aG9uJywgJy1waHQnLCAnMi4wJywgJy1waCcsICc3LjAnLCAnLXRuJywgJzgnLCAnLW1hJywgJzIwMCcsICctaW1hZScsICc8aW5maWxlLm1hZT4nLCAnLW9tYWUnLCAnPG91dGZpbGUubWFlPic=

>  <r_epik_Ionization_Penalty>  (74) 
0.000567066

>  <r_epik_Ionization_Penalty_Charging>  (74) 
0

>  <r_epik_Ionization_Penalty_Neutral>  (74) 
0.000567066

>  <r_epik_State_Penalty>  (74) 
0.00141837

>  <r_epik_Charging_Adjusted_Penalty>  (74) 
0.00141837

>  <i_epik_Tot_Q>  (74) 
-1

>  <i_epik_Tot_abs_Q>  (74) 
1

>  <s_epik_Chemistry_Notes>  (74) 
This compound has an ester and may undergo hydrolysis at high or low pH. This compound has an imine and may undergo hydrolysis.

>  <s_lp_Force_Field>  (74) 
OPLS3e

>  <r_lp_Energy>  (74) 
37.9425

>  <b_lp_Chiralities_Consistent>  (74) 
1

>  <s_lp_Variant>  (74) 
27:0-1

>  <s_i_glide_gridfile>  (74) 
pfpi4k_grid

>  <i_i_glide_lignum>  (74) 
36

>  <i_i_glide_rotatable_bonds>  (74) 
2

>  <r_i_docking_score>  (74) 
-3.41539

>  <r_i_glide_ligand_efficiency>  (74) 
-0.170769

>  <r_i_glide_ligand_efficiency_sa>  (74) 
-0.46354

>  <r_i_glide_ligand_efficiency_ln>  (74) 
-0.854759

>  <r_i_glide_gscore>  (74) 
-3.41539

>  <r_i_glide_lipo>  (74) 
-0.493907

>  <r_i_glide_hbond>  (74) 
0

>  <r_i_glide_metal>  (74) 
-0

>  <r_i_glide_rewards>  (74) 
-1.98818

>  <r_i_glide_evdw>  (74) 
-26.7278

>  <r_i_glide_ecoul>  (74) 
-0.536931

>  <r_i_glide_erotb>  (74) 
0.486572

>  <r_i_glide_esite>  (74) 
-0.00294049

>  <r_i_glide_emodel>  (74) 
-31.4019

>  <r_i_glide_energy>  (74) 
-27.2647

>  <r_i_glide_einternal>  (74) 
4.53433

>  <r_i_glide_intrahb_reward>  (74) 
-0

>  <i_i_glide_confnum>  (74) 
2

>  <i_i_glide_posenum>  (74) 
32

>  <r_i_glide_eff_state_penalty>  (74) 
0

>  <ligand_id>  (74) 
27

>  <original_smiles>  (74) 
COC(=O)C1C(C)=Nc2nnnn2C1c1cccnc1

>  <smiles>  (74) 
[H]c1nc([H])c(C2([H])C(=C([O-])OC([H])([H])[H])C(C([H])([H])[H])=Nc3nnnn32)c([H])c1[H]

$$$$
28:0:0
     RDKit          3D

 17 19  0  0  1  0  0  0  0  0999 V2000
   -2.2310    3.0876    4.4643 C   0  0  0  0  0  0  0  0  0  0  0  0
   -1.3755    4.1774    4.4823 N   0  0  0  0  0  0  0  0  0  0  0  0
   -0.3725    3.5786    3.9358 C   0  0  0  0  0  0  0  0  0  0  0  0
    0.9088    4.1619    3.6826 C   0  0  0  0  0  0  0  0  0  0  0  0
    1.4276    5.4666    3.8851 C   0  0  0  0  0  0  0  0  0  0  0  0
    2.7269    5.3973    3.3878 C   0  0  0  0  0  0  0  0  0  0  0  0
    3.0301    4.1157    2.8744 N   0  0  0  0  0  0  0  0  0  0  0  0
    1.9039    3.3932    3.0710 C   0  0  0  0  0  0  0  0  0  0  0  0
    1.6885    2.0733    2.7386 N   0  0  0  0  0  0  0  0  0  0  0  0
    0.4661    1.5317    2.9920 C   0  0  0  0  0  0  0  0  0  0  0  0
   -0.5012    2.3175    3.5925 N   0  0  0  0  0  0  0  0  0  0  0  0
   -1.7492    1.9323    3.9529 N   0  0  0  0  0  0  0  0  0  0  0  0
    3.9071    3.8035    2.4625 H   0  0  0  0  0  0  0  0  0  0  0  0
   -3.2398    3.1299    4.8450 H   0  0  0  0  0  0  0  0  0  0  0  0
    0.9452    6.3373    4.3151 H   0  0  0  0  0  0  0  0  0  0  0  0
    3.4807    6.1673    3.3392 H   0  0  0  0  0  0  0  0  0  0  0  0
    0.2554    0.5014    2.7468 H   0  0  0  0  0  0  0  0  0  0  0  0
  1 12  2  0
  1  2  1  0
  1 14  1  0
  2  3  2  0
  3 11  1  0
  3  4  1  0
  4  8  2  0
  4  5  1  0
  5  6  2  0
  5 15  1  0
  6  7  1  0
  6 16  1  0
  7 13  1  0
  7  8  1  0
  8  9  1  0
  9 10  2  0
 10 11  1  0
 10 17  1  0
 11 12  1  0
M  END
>  <i_m_ct_stereo_status>  (75) 
1

>  <s_m_source_file>  (75) 
/var/tmp/pbs.5076255.sched01/tmp6mkrr40i/0ze8ciewu.sdf

>  <i_m_source_file_index>  (75) 
37

>  <i_lp_mmshare_version>  (75) 
48012

>  <i_f3d_flags>  (75) 
0

>  <s_epik_input>  (75) 
bjFbY0hdbm4yW2NIXW5jKGMzYzEyKVtuSF1bY0hdW2NIXTM=

>  <s_epik_cmdline>  (75) 
J2VwaWtfcHl0aG9uJywgJy1waHQnLCAnMi4wJywgJy1waCcsICc3LjAnLCAnLXRuJywgJzgnLCAnLW1hJywgJzIwMCcsICctaW1hZScsICc8aW5maWxlLm1hZT4nLCAnLW9tYWUnLCAnPG91dGZpbGUubWFlPic=

>  <r_lp_tautomer_probability>  (75) 
1

>  <r_epik_Ionization_Penalty>  (75) 
4.98627e-05

>  <r_epik_Ionization_Penalty_Charging>  (75) 
0

>  <r_epik_Ionization_Penalty_Neutral>  (75) 
4.98627e-05

>  <r_epik_State_Penalty>  (75) 
-0

>  <r_epik_Charging_Adjusted_Penalty>  (75) 
0

>  <i_epik_Tot_Q>  (75) 
0

>  <i_epik_Tot_abs_Q>  (75) 
0

>  <s_lp_Force_Field>  (75) 
OPLS3e

>  <r_lp_Energy>  (75) 
17.908

>  <b_lp_Chiralities_Consistent>  (75) 
1

>  <s_lp_Variant>  (75) 
28:0-1

>  <s_i_glide_gridfile>  (75) 
pfpi4k_grid

>  <i_i_glide_lignum>  (75) 
37

>  <i_i_glide_rotatable_bonds>  (75) 
0

>  <r_i_docking_score>  (75) 
-4.22725

>  <r_i_glide_ligand_efficiency>  (75) 
-0.352271

>  <r_i_glide_ligand_efficiency_sa>  (75) 
-0.806499

>  <r_i_glide_ligand_efficiency_ln>  (75) 
-1.21302

>  <r_i_glide_gscore>  (75) 
-4.22725

>  <r_i_glide_lipo>  (75) 
-0.0308477

>  <r_i_glide_hbond>  (75) 
-0.32

>  <r_i_glide_metal>  (75) 
-0

>  <r_i_glide_rewards>  (75) 
-2.25

>  <r_i_glide_evdw>  (75) 
-15.7439

>  <r_i_glide_ecoul>  (75) 
-3.91982

>  <r_i_glide_erotb>  (75) 
0

>  <r_i_glide_esite>  (75) 
-0.251231

>  <r_i_glide_emodel>  (75) 
-25.471

>  <r_i_glide_energy>  (75) 
-19.6638

>  <r_i_glide_einternal>  (75) 
0

>  <r_i_glide_intrahb_reward>  (75) 
-0

>  <i_i_glide_confnum>  (75) 
2

>  <i_i_glide_posenum>  (75) 
6

>  <r_i_glide_eff_state_penalty>  (75) 
0

>  <ligand_id>  (75) 
28

>  <original_smiles>  (75) 
c1nc2c3cc[nH]c3ncn2n1

>  <smiles>  (75) 
[H]c1nc2c3c([H])c([H])n([H])c3nc([H])n2n1

$$$$
28:0:1
     RDKit          3D

 17 19  0  0  1  0  0  0  0  0999 V2000
    0.2298   -4.7654    6.3915 C   0  0  0  0  0  0  0  0  0  0  0  0
   -0.5420   -5.8750    6.0884 N   0  0  0  0  0  0  0  0  0  0  0  0
   -0.0600   -6.0771    4.9123 C   0  0  0  0  0  0  0  0  0  0  0  0
   -0.4507   -7.1237    4.0110 C   0  0  0  0  0  0  0  0  0  0  0  0
   -1.3704   -8.1964    4.1273 C   0  0  0  0  0  0  0  0  0  0  0  0
   -1.2857   -8.8570    2.9060 C   0  0  0  0  0  0  0  0  0  0  0  0
   -0.3644   -8.2528    2.0301 N   0  0  0  0  0  0  0  0  0  0  0  0
    0.1225   -7.1948    2.7363 C   0  0  0  0  0  0  0  0  0  0  0  0
    1.0573   -6.2623    2.3312 N   0  0  0  0  0  0  0  0  0  0  0  0
    1.4371   -5.2915    3.2064 C   0  0  0  0  0  0  0  0  0  0  0  0
    0.8465   -5.2443    4.4587 N   0  0  0  0  0  0  0  0  0  0  0  0
    1.0711   -4.3242    5.4275 N   0  0  0  0  0  0  0  0  0  0  0  0
   -0.1122   -8.5955    1.1077 H   0  0  0  0  0  0  0  0  0  0  0  0
    0.1720   -4.2522    7.3394 H   0  0  0  0  0  0  0  0  0  0  0  0
   -1.9909   -8.4927    4.9638 H   0  0  0  0  0  0  0  0  0  0  0  0
   -1.7986   -9.7525    2.5915 H   0  0  0  0  0  0  0  0  0  0  0  0
    2.1670   -4.5451    2.9265 H   0  0  0  0  0  0  0  0  0  0  0  0
  1 12  2  0
  1  2  1  0
  1 14  1  0
  2  3  2  0
  3 11  1  0
  3  4  1  0
  4  8  2  0
  4  5  1  0
  5  6  2  0
  5 15  1  0
  6  7  1  0
  6 16  1  0
  7 13  1  0
  7  8  1  0
  8  9  1  0
  9 10  2  0
 10 11  1  0
 10 17  1  0
 11 12  1  0
M  END
>  <i_m_ct_stereo_status>  (76) 
1

>  <s_m_source_file>  (76) 
/var/tmp/pbs.5076255.sched01/tmp6mkrr40i/0ze8ciewu.sdf

>  <i_m_source_file_index>  (76) 
37

>  <i_lp_mmshare_version>  (76) 
48012

>  <i_f3d_flags>  (76) 
0

>  <s_epik_input>  (76) 
bjFbY0hdbm4yW2NIXW5jKGMzYzEyKVtuSF1bY0hdW2NIXTM=

>  <s_epik_cmdline>  (76) 
J2VwaWtfcHl0aG9uJywgJy1waHQnLCAnMi4wJywgJy1waCcsICc3LjAnLCAnLXRuJywgJzgnLCAnLW1hJywgJzIwMCcsICctaW1hZScsICc8aW5maWxlLm1hZT4nLCAnLW9tYWUnLCAnPG91dGZpbGUubWFlPic=

>  <r_lp_tautomer_probability>  (76) 
1

>  <r_epik_Ionization_Penalty>  (76) 
4.98627e-05

>  <r_epik_Ionization_Penalty_Charging>  (76) 
0

>  <r_epik_Ionization_Penalty_Neutral>  (76) 
4.98627e-05

>  <r_epik_State_Penalty>  (76) 
-0

>  <r_epik_Charging_Adjusted_Penalty>  (76) 
0

>  <i_epik_Tot_Q>  (76) 
0

>  <i_epik_Tot_abs_Q>  (76) 
0

>  <s_lp_Force_Field>  (76) 
OPLS3e

>  <r_lp_Energy>  (76) 
17.908

>  <b_lp_Chiralities_Consistent>  (76) 
1

>  <s_lp_Variant>  (76) 
28:0-1

>  <s_i_glide_gridfile>  (76) 
pfpi4k_grid

>  <i_i_glide_lignum>  (76) 
37

>  <i_i_glide_rotatable_bonds>  (76) 
0

>  <r_i_docking_score>  (76) 
-4.10213

>  <r_i_glide_ligand_efficiency>  (76) 
-0.341844

>  <r_i_glide_ligand_efficiency_sa>  (76) 
-0.782627

>  <r_i_glide_ligand_efficiency_ln>  (76) 
-1.17711

>  <r_i_glide_gscore>  (76) 
-4.10213

>  <r_i_glide_lipo>  (76) 
0

>  <r_i_glide_hbond>  (76) 
-0.32

>  <r_i_glide_metal>  (76) 
-0

>  <r_i_glide_rewards>  (76) 
-2.25

>  <r_i_glide_evdw>  (76) 
-14.1246

>  <r_i_glide_ecoul>  (76) 
-4.31979

>  <r_i_glide_erotb>  (76) 
0

>  <r_i_glide_esite>  (76) 
-0.177928

>  <r_i_glide_emodel>  (76) 
-24.0733

>  <r_i_glide_energy>  (76) 
-18.4444

>  <r_i_glide_einternal>  (76) 
0

>  <r_i_glide_intrahb_reward>  (76) 
-0

>  <i_i_glide_confnum>  (76) 
2

>  <i_i_glide_posenum>  (76) 
17

>  <r_i_glide_eff_state_penalty>  (76) 
0

>  <ligand_id>  (76) 
28

>  <original_smiles>  (76) 
c1nc2c3cc[nH]c3ncn2n1

>  <smiles>  (76) 
[H]c1nc2c3c([H])c([H])n([H])c3nc([H])n2n1

$$$$
28:0:2
     RDKit          3D

 17 19  0  0  1  0  0  0  0  0999 V2000
   -1.2898   -7.3776    3.0210 C   0  0  0  0  0  0  0  0  0  0  0  0
   -0.1316   -6.9105    2.4134 N   0  0  0  0  0  0  0  0  0  0  0  0
    0.5364   -8.0095    2.5238 C   0  0  0  0  0  0  0  0  0  0  0  0
    1.8909   -8.2183    2.0929 C   0  0  0  0  0  0  0  0  0  0  0  0
    2.8391   -7.3697    1.4632 C   0  0  0  0  0  0  0  0  0  0  0  0
    3.9643   -8.1776    1.2937 C   0  0  0  0  0  0  0  0  0  0  0  0
    3.7640   -9.4834    1.8014 N   0  0  0  0  0  0  0  0  0  0  0  0
    2.4952   -9.4646    2.2852 C   0  0  0  0  0  0  0  0  0  0  0  0
    1.8098  -10.4959    2.8901 N   0  0  0  0  0  0  0  0  0  0  0  0
    0.5272  -10.2843    3.2997 C   0  0  0  0  0  0  0  0  0  0  0  0
   -0.0411   -9.0418    3.0894 N   0  0  0  0  0  0  0  0  0  0  0  0
   -1.2907   -8.6563    3.4430 N   0  0  0  0  0  0  0  0  0  0  0  0
    4.4012  -10.2704    1.7570 H   0  0  0  0  0  0  0  0  0  0  0  0
   -2.1667   -6.7644    3.1722 H   0  0  0  0  0  0  0  0  0  0  0  0
    2.7331   -6.3349    1.1570 H   0  0  0  0  0  0  0  0  0  0  0  0
    4.9143   -7.9402    0.8397 H   0  0  0  0  0  0  0  0  0  0  0  0
   -0.0429  -11.0636    3.7829 H   0  0  0  0  0  0  0  0  0  0  0  0
  1 12  2  0
  1  2  1  0
  1 14  1  0
  2  3  2  0
  3 11  1  0
  3  4  1  0
  4  8  2  0
  4  5  1  0
  5  6  2  0
  5 15  1  0
  6  7  1  0
  6 16  1  0
  7 13  1  0
  7  8  1  0
  8  9  1  0
  9 10  2  0
 10 11  1  0
 10 17  1  0
 11 12  1  0
M  END
>  <i_m_ct_stereo_status>  (77) 
1

>  <s_m_source_file>  (77) 
/var/tmp/pbs.5076255.sched01/tmp6mkrr40i/0ze8ciewu.sdf

>  <i_m_source_file_index>  (77) 
37

>  <i_lp_mmshare_version>  (77) 
48012

>  <i_f3d_flags>  (77) 
0

>  <s_epik_input>  (77) 
bjFbY0hdbm4yW2NIXW5jKGMzYzEyKVtuSF1bY0hdW2NIXTM=

>  <s_epik_cmdline>  (77) 
J2VwaWtfcHl0aG9uJywgJy1waHQnLCAnMi4wJywgJy1waCcsICc3LjAnLCAnLXRuJywgJzgnLCAnLW1hJywgJzIwMCcsICctaW1hZScsICc8aW5maWxlLm1hZT4nLCAnLW9tYWUnLCAnPG91dGZpbGUubWFlPic=

>  <r_lp_tautomer_probability>  (77) 
1

>  <r_epik_Ionization_Penalty>  (77) 
4.98627e-05

>  <r_epik_Ionization_Penalty_Charging>  (77) 
0

>  <r_epik_Ionization_Penalty_Neutral>  (77) 
4.98627e-05

>  <r_epik_State_Penalty>  (77) 
-0

>  <r_epik_Charging_Adjusted_Penalty>  (77) 
0

>  <i_epik_Tot_Q>  (77) 
0

>  <i_epik_Tot_abs_Q>  (77) 
0

>  <s_lp_Force_Field>  (77) 
OPLS3e

>  <r_lp_Energy>  (77) 
17.908

>  <b_lp_Chiralities_Consistent>  (77) 
1

>  <s_lp_Variant>  (77) 
28:0-1

>  <s_i_glide_gridfile>  (77) 
pfpi4k_grid

>  <i_i_glide_lignum>  (77) 
37

>  <i_i_glide_rotatable_bonds>  (77) 
0

>  <r_i_docking_score>  (77) 
-3.74774

>  <r_i_glide_ligand_efficiency>  (77) 
-0.312312

>  <r_i_glide_ligand_efficiency_sa>  (77) 
-0.715016

>  <r_i_glide_ligand_efficiency_ln>  (77) 
-1.07542

>  <r_i_glide_gscore>  (77) 
-3.74774

>  <r_i_glide_lipo>  (77) 
-0.0308284

>  <r_i_glide_hbond>  (77) 
-0.113373

>  <r_i_glide_metal>  (77) 
-0

>  <r_i_glide_rewards>  (77) 
-2.2559

>  <r_i_glide_evdw>  (77) 
-18.1208

>  <r_i_glide_ecoul>  (77) 
-1.50461

>  <r_i_glide_erotb>  (77) 
0

>  <r_i_glide_esite>  (77) 
-0.215906

>  <r_i_glide_emodel>  (77) 
-24.7724

>  <r_i_glide_energy>  (77) 
-19.6254

>  <r_i_glide_einternal>  (77) 
0

>  <r_i_glide_intrahb_reward>  (77) 
-0

>  <i_i_glide_confnum>  (77) 
1

>  <i_i_glide_posenum>  (77) 
2

>  <r_i_glide_eff_state_penalty>  (77) 
0

>  <ligand_id>  (77) 
28

>  <original_smiles>  (77) 
c1nc2c3cc[nH]c3ncn2n1

>  <smiles>  (77) 
[H]c1nc2c3c([H])c([H])n([H])c3nc([H])n2n1

$$$$
29:0:0
     RDKit          3D

 29 31  0  0  1  0  0  0  0  0999 V2000
    2.1980   -3.0129   -2.4157 N   0  0  0  0  0  0  0  0  0  0  0  0
    3.5881   -3.3775   -2.0695 C   0  0  2  0  0  0  0  0  0  0  0  0
    3.7016   -3.8492   -0.5946 C   0  0  1  0  0  0  0  0  0  0  0  0
    5.1467   -4.3316   -0.3266 C   0  0  0  0  0  0  0  0  0  0  0  0
    6.1296   -3.1657   -0.5745 C   0  0  2  0  0  0  0  0  0  0  0  0
    5.7951   -1.9961    0.3727 C   0  0  0  0  0  0  0  0  0  0  0  0
    4.3548   -1.5172    0.1021 C   0  0  2  0  0  0  0  0  0  0  0  0
    3.3781   -2.6809    0.3691 C   0  0  0  0  0  0  0  0  0  0  0  0
    4.2395   -1.0551   -1.3652 C   0  0  0  0  0  0  0  0  0  0  0  0
    4.5719   -2.2167   -2.3153 C   0  0  1  0  0  0  0  0  0  0  0  0
    6.0136   -2.6987   -2.0400 C   0  0  0  0  0  0  0  0  0  0  0  0
    1.8768   -2.2458   -1.8232 H   0  0  0  0  0  0  0  0  0  0  0  0
    1.5848   -3.8059   -2.2818 H   0  0  0  0  0  0  0  0  0  0  0  0
    3.8777   -4.1924   -2.7398 H   0  0  0  0  0  0  0  0  0  0  0  0
    3.0146   -4.6775   -0.4144 H   0  0  0  0  0  0  0  0  0  0  0  0
    5.2401   -4.6975    0.6954 H   0  0  0  0  0  0  0  0  0  0  0  0
    5.3845   -5.1771   -0.9796 H   0  0  0  0  0  0  0  0  0  0  0  0
    7.1521   -3.4974   -0.3876 H   0  0  0  0  0  0  0  0  0  0  0  0
    5.8943   -2.3129    1.4117 H   0  0  0  0  0  0  0  0  0  0  0  0
    6.5002   -1.1768    0.2285 H   0  0  0  0  0  0  0  0  0  0  0  0
    4.1157   -0.6841    0.7641 H   0  0  0  0  0  0  0  0  0  0  0  0
    2.3475   -2.3433    0.2509 H   0  0  0  0  0  0  0  0  0  0  0  0
    3.4633   -3.0144    1.4043 H   0  0  0  0  0  0  0  0  0  0  0  0
    3.2440   -0.6558   -1.5599 H   0  0  0  0  0  0  0  0  0  0  0  0
    4.9373   -0.2458   -1.5513 H   0  0  0  0  0  0  0  0  0  0  0  0
    4.4998   -1.8817   -3.3504 H   0  0  0  0  0  0  0  0  0  0  0  0
    6.7202   -1.8945   -2.2233 H   0  0  0  0  0  0  0  0  0  0  0  0
    6.2834   -3.5105   -2.7211 H   0  0  0  0  0  0  0  0  0  0  0  0
    2.1285   -2.7222   -3.3788 H   0  0  0  0  0  0  0  0  0  0  0  0
  1  2  1  0
  1 12  1  0
  1 13  1  0
  1 29  1  0
  2 10  1  0
  2  3  1  0
  2 14  1  6
  3  8  1  0
  3  4  1  0
  3 15  1  6
  4  5  1  0
  4 16  1  0
  4 17  1  0
  5 11  1  0
  5  6  1  0
  5 18  1  1
  6  7  1  0
  6 19  1  0
  6 20  1  0
  7  8  1  0
  7  9  1  0
  7 21  1  1
  8 22  1  0
  8 23  1  0
  9 10  1  0
  9 24  1  0
  9 25  1  0
 10 11  1  0
 10 26  1  6
 11 27  1  0
 11 28  1  0
M  CHG  1   1   1
M  END
>  <i_m_ct_stereo_status>  (78) 
1

>  <s_m_source_file>  (78) 
/var/tmp/pbs.5076255.sched01/tmp6mkrr40i/0ze8ciewu.sdf

>  <i_m_source_file_index>  (78) 
38

>  <i_lp_mmshare_version>  (78) 
48012

>  <i_f3d_flags>  (78) 
0

>  <s_epik_input>  (78) 
W05IMl1bQ0BIXShbQ0BASF0xMilbQ0BIXTNbQ0gyXVtDQEBIXShbQ0gyXTIpW0NIMl1bQ0BASF0oW0NIMl0xKVtDSDJdMw==

>  <s_epik_cmdline>  (78) 
J2VwaWtfcHl0aG9uJywgJy1waHQnLCAnMi4wJywgJy1waCcsICc3LjAnLCAnLXRuJywgJzgnLCAnLW1hJywgJzIwMCcsICctaW1hZScsICc8aW5maWxlLm1hZT4nLCAnLW9tYWUnLCAnPG91dGZpbGUubWFlPic=

>  <r_lp_tautomer_probability>  (78) 
1

>  <r_epik_Ionization_Penalty>  (78) 
0.000164672

>  <r_epik_Ionization_Penalty_Charging>  (78) 
0.000164672

>  <r_epik_Ionization_Penalty_Neutral>  (78) 
0

>  <r_epik_State_Penalty>  (78) 
-0

>  <r_epik_Charging_Adjusted_Penalty>  (78) 
0.000164672

>  <i_epik_Tot_Q>  (78) 
1

>  <i_epik_Tot_abs_Q>  (78) 
1

>  <s_lp_Force_Field>  (78) 
OPLS3e

>  <r_lp_Energy>  (78) 
6.10956

>  <b_lp_Chiralities_Consistent>  (78) 
1

>  <s_lp_Variant>  (78) 
29:0-1

>  <s_i_glide_gridfile>  (78) 
pfpi4k_grid

>  <i_i_glide_lignum>  (78) 
38

>  <i_i_glide_rotatable_bonds>  (78) 
0

>  <r_i_docking_score>  (78) 
-4.34857

>  <r_i_glide_ligand_efficiency>  (78) 
-0.395325

>  <r_i_glide_ligand_efficiency_sa>  (78) 
-0.879194

>  <r_i_glide_ligand_efficiency_ln>  (78) 
-1.27978

>  <r_i_glide_gscore>  (78) 
-4.34857

>  <r_i_glide_lipo>  (78) 
-0.248137

>  <r_i_glide_hbond>  (78) 
-0.2

>  <r_i_glide_metal>  (78) 
-0

>  <r_i_glide_rewards>  (78) 
-2.25

>  <r_i_glide_evdw>  (78) 
-14.1397

>  <r_i_glide_ecoul>  (78) 
-6.28968

>  <r_i_glide_erotb>  (78) 
0

>  <r_i_glide_esite>  (78) 
0

>  <r_i_glide_emodel>  (78) 
-27.6883

>  <r_i_glide_energy>  (78) 
-20.4293

>  <r_i_glide_einternal>  (78) 
0

>  <r_i_glide_intrahb_reward>  (78) 
-0

>  <i_i_glide_confnum>  (78) 
2

>  <i_i_glide_posenum>  (78) 
28

>  <r_i_glide_eff_state_penalty>  (78) 
0

>  <ligand_id>  (78) 
29

>  <original_smiles>  (78) 
NC1C2CC3CC(C2)CC1C3

>  <smiles>  (78) 
[H]C1([H])C2([H])C([H])([H])C3([H])C([H])([H])C1([H])C([H])([H])C([H])(C2([H])[H])C3([H])[N+]([H])([H])[H]

$$$$
29:0:1
     RDKit          3D

 29 31  0  0  1  0  0  0  0  0999 V2000
    4.2170   -5.4198   -0.1986 N   0  0  0  0  0  0  0  0  0  0  0  0
    4.5815   -4.0408    0.1846 C   0  0  2  0  0  0  0  0  0  0  0  0
    3.4018   -3.0580   -0.0224 C   0  0  1  0  0  0  0  0  0  0  0  0
    3.8055   -1.6579    0.4976 C   0  0  0  0  0  0  0  0  0  0  0  0
    5.0322   -1.1537   -0.2890 C   0  0  2  0  0  0  0  0  0  0  0  0
    4.6777   -1.0645   -1.7881 C   0  0  0  0  0  0  0  0  0  0  0  0
    4.2894   -2.4623   -2.3110 C   0  0  2  0  0  0  0  0  0  0  0  0
    3.0534   -2.9522   -1.5291 C   0  0  0  0  0  0  0  0  0  0  0  0
    5.4696   -3.4361   -2.1113 C   0  0  0  0  0  0  0  0  0  0  0  0
    5.8124   -3.5316   -0.6048 C   0  0  1  0  0  0  0  0  0  0  0  0
    6.2133   -2.1313   -0.0856 C   0  0  0  0  0  0  0  0  0  0  0  0
    3.9609   -5.4512   -1.1842 H   0  0  0  0  0  0  0  0  0  0  0  0
    3.4313   -5.7369    0.3536 H   0  0  0  0  0  0  0  0  0  0  0  0
    4.8334   -4.0664    1.2493 H   0  0  0  0  0  0  0  0  0  0  0  0
    2.5287   -3.3960    0.5337 H   0  0  0  0  0  0  0  0  0  0  0  0
    2.9755   -0.9581    0.3856 H   0  0  0  0  0  0  0  0  0  0  0  0
    4.0294   -1.6916    1.5669 H   0  0  0  0  0  0  0  0  0  0  0  0
    5.3159   -0.1647    0.0778 H   0  0  0  0  0  0  0  0  0  0  0  0
    3.8517   -0.3735   -1.9455 H   0  0  0  0  0  0  0  0  0  0  0  0
    5.5287   -0.6674   -2.3378 H   0  0  0  0  0  0  0  0  0  0  0  0
    4.0463   -2.4006   -3.3722 H   0  0  0  0  0  0  0  0  0  0  0  0
    2.7045   -3.9038   -1.9270 H   0  0  0  0  0  0  0  0  0  0  0  0
    2.2276   -2.2585   -1.6854 H   0  0  0  0  0  0  0  0  0  0  0  0
    5.2253   -4.4137   -2.5279 H   0  0  0  0  0  0  0  0  0  0  0  0
    6.3382   -3.0842   -2.6691 H   0  0  0  0  0  0  0  0  0  0  0  0
    6.6550   -4.2091   -0.4547 H   0  0  0  0  0  0  0  0  0  0  0  0
    7.0963   -1.7803   -0.6200 H   0  0  0  0  0  0  0  0  0  0  0  0
    6.4874   -2.1734    0.9716 H   0  0  0  0  0  0  0  0  0  0  0  0
    4.9970   -6.0414   -0.0424 H   0  0  0  0  0  0  0  0  0  0  0  0
  1  2  1  0
  1 12  1  0
  1 13  1  0
  1 29  1  0
  2 10  1  0
  2  3  1  0
  2 14  1  1
  3  8  1  0
  3  4  1  0
  3 15  1  1
  4  5  1  0
  4 16  1  0
  4 17  1  0
  5 11  1  0
  5  6  1  0
  5 18  1  1
  6  7  1  0
  6 19  1  0
  6 20  1  0
  7  8  1  0
  7  9  1  0
  7 21  1  6
  8 22  1  0
  8 23  1  0
  9 10  1  0
  9 24  1  0
  9 25  1  0
 10 11  1  0
 10 26  1  6
 11 27  1  0
 11 28  1  0
M  CHG  1   1   1
M  END
>  <i_m_ct_stereo_status>  (79) 
1

>  <s_m_source_file>  (79) 
/var/tmp/pbs.5076255.sched01/tmp6mkrr40i/0ze8ciewu.sdf

>  <i_m_source_file_index>  (79) 
38

>  <i_lp_mmshare_version>  (79) 
48012

>  <i_f3d_flags>  (79) 
0

>  <s_epik_input>  (79) 
W05IMl1bQ0BIXShbQ0BASF0xMilbQ0BIXTNbQ0gyXVtDQEBIXShbQ0gyXTIpW0NIMl1bQ0BASF0oW0NIMl0xKVtDSDJdMw==

>  <s_epik_cmdline>  (79) 
J2VwaWtfcHl0aG9uJywgJy1waHQnLCAnMi4wJywgJy1waCcsICc3LjAnLCAnLXRuJywgJzgnLCAnLW1hJywgJzIwMCcsICctaW1hZScsICc8aW5maWxlLm1hZT4nLCAnLW9tYWUnLCAnPG91dGZpbGUubWFlPic=

>  <r_lp_tautomer_probability>  (79) 
1

>  <r_epik_Ionization_Penalty>  (79) 
0.000164672

>  <r_epik_Ionization_Penalty_Charging>  (79) 
0.000164672

>  <r_epik_Ionization_Penalty_Neutral>  (79) 
0

>  <r_epik_State_Penalty>  (79) 
-0

>  <r_epik_Charging_Adjusted_Penalty>  (79) 
0.000164672

>  <i_epik_Tot_Q>  (79) 
1

>  <i_epik_Tot_abs_Q>  (79) 
1

>  <s_lp_Force_Field>  (79) 
OPLS3e

>  <r_lp_Energy>  (79) 
6.10956

>  <b_lp_Chiralities_Consistent>  (79) 
1

>  <s_lp_Variant>  (79) 
29:0-1

>  <s_i_glide_gridfile>  (79) 
pfpi4k_grid

>  <i_i_glide_lignum>  (79) 
38

>  <i_i_glide_rotatable_bonds>  (79) 
0

>  <r_i_docking_score>  (79) 
-4.05147

>  <r_i_glide_ligand_efficiency>  (79) 
-0.368315

>  <r_i_glide_ligand_efficiency_sa>  (79) 
-0.819126

>  <r_i_glide_ligand_efficiency_ln>  (79) 
-1.19235

>  <r_i_glide_gscore>  (79) 
-4.05147

>  <r_i_glide_lipo>  (79) 
-0.316209

>  <r_i_glide_hbond>  (79) 
0

>  <r_i_glide_metal>  (79) 
-0

>  <r_i_glide_rewards>  (79) 
-2.25

>  <r_i_glide_evdw>  (79) 
-15.3827

>  <r_i_glide_ecoul>  (79) 
-4.58863

>  <r_i_glide_erotb>  (79) 
0

>  <r_i_glide_esite>  (79) 
-0.0278317

>  <r_i_glide_emodel>  (79) 
-26.7354

>  <r_i_glide_energy>  (79) 
-19.9713

>  <r_i_glide_einternal>  (79) 
0

>  <r_i_glide_intrahb_reward>  (79) 
-0

>  <i_i_glide_confnum>  (79) 
1

>  <i_i_glide_posenum>  (79) 
9

>  <r_i_glide_eff_state_penalty>  (79) 
0

>  <ligand_id>  (79) 
29

>  <original_smiles>  (79) 
NC1C2CC3CC(C2)CC1C3

>  <smiles>  (79) 
[H]C1([H])C2([H])C([H])([H])C3([H])C([H])([H])C1([H])C([H])([H])C([H])(C2([H])[H])C3([H])[N+]([H])([H])[H]

$$$$
29:0:2
     RDKit          3D

 29 31  0  0  1  0  0  0  0  0999 V2000
    3.0405   -0.3066   -3.3329 N   0  0  0  0  0  0  0  0  0  0  0  0
    4.1458   -1.2721   -3.1276 C   0  0  2  0  0  0  0  0  0  0  0  0
    3.6610   -2.7274   -3.3052 C   0  0  1  0  0  0  0  0  0  0  0  0
    4.8830   -3.6702   -3.1627 C   0  0  0  0  0  0  0  0  0  0  0  0
    5.4777   -3.5305   -1.7444 C   0  0  2  0  0  0  0  0  0  0  0  0
    4.4265   -3.8656   -0.6745 C   0  0  0  0  0  0  0  0  0  0  0  0
    3.2445   -2.8977   -0.8099 C   0  0  2  0  0  0  0  0  0  0  0  0
    2.6139   -3.0541   -2.2144 C   0  0  0  0  0  0  0  0  0  0  0  0
    3.7730   -1.4551   -0.6133 C   0  0  0  0  0  0  0  0  0  0  0  0
    4.7924   -1.1266   -1.7201 C   0  0  1  0  0  0  0  0  0  0  0  0
    5.9809   -2.0943   -1.5602 C   0  0  0  0  0  0  0  0  0  0  0  0
    2.3370   -0.4961   -2.6269 H   0  0  0  0  0  0  0  0  0  0  0  0
    2.6215   -0.4260   -4.2454 H   0  0  0  0  0  0  0  0  0  0  0  0
    4.8982   -1.0654   -3.8880 H   0  0  0  0  0  0  0  0  0  0  0  0
    3.2150   -2.8655   -4.2901 H   0  0  0  0  0  0  0  0  0  0  0  0
    4.6200   -4.7136   -3.3427 H   0  0  0  0  0  0  0  0  0  0  0  0
    5.6404   -3.4353   -3.9134 H   0  0  0  0  0  0  0  0  0  0  0  0
    6.3036   -4.2195   -1.6100 H   0  0  0  0  0  0  0  0  0  0  0  0
    4.0951   -4.8988   -0.7782 H   0  0  0  0  0  0  0  0  0  0  0  0
    4.8718   -3.7846    0.3172 H   0  0  0  0  0  0  0  0  0  0  0  0
    2.4988   -3.1186   -0.0432 H   0  0  0  0  0  0  0  0  0  0  0  0
    1.7462   -2.4083   -2.3187 H   0  0  0  0  0  0  0  0  0  0  0  0
    2.2145   -4.0594   -2.3429 H   0  0  0  0  0  0  0  0  0  0  0  0
    2.9632   -0.7326   -0.6354 H   0  0  0  0  0  0  0  0  0  0  0  0
    4.2240   -1.3519    0.3759 H   0  0  0  0  0  0  0  0  0  0  0  0
    5.1514   -0.1098   -1.5922 H   0  0  0  0  0  0  0  0  0  0  0  0
    6.4392   -1.9759   -0.5775 H   0  0  0  0  0  0  0  0  0  0  0  0
    6.7535   -1.8874   -2.2988 H   0  0  0  0  0  0  0  0  0  0  0  0
    3.3322    0.6558   -3.2256 H   0  0  0  0  0  0  0  0  0  0  0  0
  1  2  1  0
  1 12  1  0
  1 13  1  0
  1 29  1  0
  2 10  1  0
  2  3  1  0
  2 14  1  6
  3  8  1  0
  3  4  1  0
  3 15  1  6
  4  5  1  0
  4 16  1  0
  4 17  1  0
  5 11  1  0
  5  6  1  0
  5 18  1  6
  6  7  1  0
  6 19  1  0
  6 20  1  0
  7  8  1  0
  7  9  1  0
  7 21  1  1
  8 22  1  0
  8 23  1  0
  9 10  1  0
  9 24  1  0
  9 25  1  0
 10 11  1  0
 10 26  1  1
 11 27  1  0
 11 28  1  0
M  CHG  1   1   1
M  END
>  <i_m_ct_stereo_status>  (80) 
1

>  <s_m_source_file>  (80) 
/var/tmp/pbs.5076255.sched01/tmp6mkrr40i/0ze8ciewu.sdf

>  <i_m_source_file_index>  (80) 
38

>  <i_lp_mmshare_version>  (80) 
48012

>  <i_f3d_flags>  (80) 
0

>  <s_epik_input>  (80) 
W05IMl1bQ0BIXShbQ0BASF0xMilbQ0BIXTNbQ0gyXVtDQEBIXShbQ0gyXTIpW0NIMl1bQ0BASF0oW0NIMl0xKVtDSDJdMw==

>  <s_epik_cmdline>  (80) 
J2VwaWtfcHl0aG9uJywgJy1waHQnLCAnMi4wJywgJy1waCcsICc3LjAnLCAnLXRuJywgJzgnLCAnLW1hJywgJzIwMCcsICctaW1hZScsICc8aW5maWxlLm1hZT4nLCAnLW9tYWUnLCAnPG91dGZpbGUubWFlPic=

>  <r_lp_tautomer_probability>  (80) 
1

>  <r_epik_Ionization_Penalty>  (80) 
0.000164672

>  <r_epik_Ionization_Penalty_Charging>  (80) 
0.000164672

>  <r_epik_Ionization_Penalty_Neutral>  (80) 
0

>  <r_epik_State_Penalty>  (80) 
-0

>  <r_epik_Charging_Adjusted_Penalty>  (80) 
0.000164672

>  <i_epik_Tot_Q>  (80) 
1

>  <i_epik_Tot_abs_Q>  (80) 
1

>  <s_lp_Force_Field>  (80) 
OPLS3e

>  <r_lp_Energy>  (80) 
6.10956

>  <b_lp_Chiralities_Consistent>  (80) 
1

>  <s_lp_Variant>  (80) 
29:0-1

>  <s_i_glide_gridfile>  (80) 
pfpi4k_grid

>  <i_i_glide_lignum>  (80) 
38

>  <i_i_glide_rotatable_bonds>  (80) 
0

>  <r_i_docking_score>  (80) 
-3.92319

>  <r_i_glide_ligand_efficiency>  (80) 
-0.356654

>  <r_i_glide_ligand_efficiency_sa>  (80) 
-0.79319

>  <r_i_glide_ligand_efficiency_ln>  (80) 
-1.15459

>  <r_i_glide_gscore>  (80) 
-3.92319

>  <r_i_glide_lipo>  (80) 
-0.407022

>  <r_i_glide_hbond>  (80) 
0

>  <r_i_glide_metal>  (80) 
-0

>  <r_i_glide_rewards>  (80) 
-2.25

>  <r_i_glide_evdw>  (80) 
-14.8574

>  <r_i_glide_ecoul>  (80) 
-3.48864

>  <r_i_glide_erotb>  (80) 
0

>  <r_i_glide_esite>  (80) 
0

>  <r_i_glide_emodel>  (80) 
-24.7727

>  <r_i_glide_energy>  (80) 
-18.3461

>  <r_i_glide_einternal>  (80) 
0

>  <r_i_glide_intrahb_reward>  (80) 
-0

>  <i_i_glide_confnum>  (80) 
1

>  <i_i_glide_posenum>  (80) 
7

>  <r_i_glide_eff_state_penalty>  (80) 
0

>  <ligand_id>  (80) 
29

>  <original_smiles>  (80) 
NC1C2CC3CC(C2)CC1C3

>  <smiles>  (80) 
[H]C1([H])C2([H])C([H])([H])C3([H])C([H])([H])C1([H])C([H])([H])C([H])(C2([H])[H])C3([H])[N+]([H])([H])[H]

$$$$
30:1:0
     RDKit          3D

 65 68  0  0  1  0  0  0  0  0999 V2000
    7.4074   -8.8288    3.3843 C   0  0  0  0  0  0  0  0  0  0  0  0
    7.8031   -7.5385    4.0894 C   0  0  0  0  0  0  0  0  0  0  0  0
    8.4039   -7.7600    5.4620 C   0  0  0  0  0  0  0  0  0  0  0  0
    7.6520   -6.2923    3.5935 C   0  0  0  0  0  0  0  0  0  0  0  0
    7.0517   -5.8722    2.2494 C   0  0  2  0  0  0  0  0  0  0  0  0
    8.1347   -5.2143    1.3594 C   0  0  0  0  0  0  0  0  0  0  0  0
    7.7292   -3.9093    0.6182 C   0  0  1  0  0  0  0  0  0  0  0  0
    8.7627   -3.5850   -0.4684 C   0  0  0  0  0  0  0  0  0  0  0  0
    6.2717   -3.8813    0.0782 C   0  0  2  0  0  0  0  0  0  0  0  0
    5.6937   -2.4425   -0.1131 C   0  0  2  0  0  0  0  0  0  0  0  0
    5.1502   -2.1496    1.2860 C   0  0  1  0  0  0  0  0  0  0  0  0
    4.5382   -0.9026    1.5329 O   0  0  0  0  0  0  0  0  0  0  0  0
    4.2152   -3.3534    1.2139 C   0  0  2  0  0  0  0  0  0  0  0  0
    3.5235   -3.1448   -0.0346 O   0  0  0  0  0  0  0  0  0  0  0  0
    4.3946   -2.4955   -0.9630 C   0  0  0  0  0  0  0  0  0  0  0  0
    3.8093   -1.1088   -1.3098 C   0  0  0  0  0  0  0  0  0  0  0  0
    4.4520   -3.3007   -2.2823 C   0  0  0  0  0  0  0  0  0  0  0  0
    3.2261   -3.5793    2.3806 C   0  0  0  0  0  0  0  0  0  0  0  0
    2.0416   -3.3634    2.1967 O   0  0  0  0  0  0  0  0  0  0  0  0
    3.7895   -4.0840    3.7367 C   0  0  1  0  0  0  0  0  0  0  0  0
    2.7170   -4.3323    4.8689 C   0  0  0  0  0  0  0  0  0  0  0  0
    3.3360   -4.8468    6.1887 C   0  0  0  0  0  0  0  0  0  0  0  0
    1.9165   -3.0495    5.2251 C   0  0  0  0  0  0  0  0  0  0  0  0
    1.7809   -5.3171    4.4701 O   0  0  0  0  0  0  0  0  0  0  0  0
    4.7382   -5.2626    3.3965 C   0  0  0  0  0  0  0  0  0  0  0  0
    4.5741   -6.4065    3.8108 O   0  0  0  0  0  0  0  0  0  0  0  0
    5.8528   -4.9029    2.4018 C   0  0  2  0  0  0  0  0  0  0  0  0
    5.2143   -4.5318    1.0229 C   0  0  2  0  0  0  0  0  0  0  0  0
    4.5335   -5.7800    0.3858 C   0  0  0  0  0  0  0  0  0  0  0  0
    8.2769   -9.4813    3.2980 H   0  0  0  0  0  0  0  0  0  0  0  0
    7.0110   -8.6948    2.3825 H   0  0  0  0  0  0  0  0  0  0  0  0
    6.6523   -9.3555    3.9671 H   0  0  0  0  0  0  0  0  0  0  0  0
    9.3052   -8.3703    5.3893 H   0  0  0  0  0  0  0  0  0  0  0  0
    7.6957   -8.2768    6.1097 H   0  0  0  0  0  0  0  0  0  0  0  0
    8.6734   -6.8168    5.9412 H   0  0  0  0  0  0  0  0  0  0  0  0
    7.9790   -5.4670    4.2110 H   0  0  0  0  0  0  0  0  0  0  0  0
    6.7083   -6.7629    1.7322 H   0  0  0  0  0  0  0  0  0  0  0  0
    8.9793   -4.9492    1.9979 H   0  0  0  0  0  0  0  0  0  0  0  0
    8.5310   -5.9490    0.6591 H   0  0  0  0  0  0  0  0  0  0  0  0
    7.8112   -3.0991    1.3383 H   0  0  0  0  0  0  0  0  0  0  0  0
    8.8177   -4.3770   -1.2177 H   0  0  0  0  0  0  0  0  0  0  0  0
    9.7539   -3.4890   -0.0231 H   0  0  0  0  0  0  0  0  0  0  0  0
    8.5540   -2.6483   -0.9842 H   0  0  0  0  0  0  0  0  0  0  0  0
    6.2859   -4.4199   -0.8626 H   0  0  0  0  0  0  0  0  0  0  0  0
    6.4190   -1.7126   -0.4811 H   0  0  0  0  0  0  0  0  0  0  0  0
    5.9156   -2.2253    2.0523 H   0  0  0  0  0  0  0  0  0  0  0  0
    3.7907   -0.8212    0.9565 H   0  0  0  0  0  0  0  0  0  0  0  0
    4.5826   -0.3968   -1.5982 H   0  0  0  0  0  0  0  0  0  0  0  0
    3.2282   -0.6813   -0.4937 H   0  0  0  0  0  0  0  0  0  0  0  0
    3.0891   -1.1696   -2.1260 H   0  0  0  0  0  0  0  0  0  0  0  0
    5.2234   -2.9081   -2.9401 H   0  0  0  0  0  0  0  0  0  0  0  0
    3.4990   -3.2479   -2.8058 H   0  0  0  0  0  0  0  0  0  0  0  0
    4.6285   -4.3601   -2.1385 H   0  0  0  0  0  0  0  0  0  0  0  0
    4.4283   -3.2836    4.1031 H   0  0  0  0  0  0  0  0  0  0  0  0
    4.0517   -4.1311    6.5878 H   0  0  0  0  0  0  0  0  0  0  0  0
    3.8506   -5.8019    6.0998 H   0  0  0  0  0  0  0  0  0  0  0  0
    2.5692   -4.9948    6.9505 H   0  0  0  0  0  0  0  0  0  0  0  0
    2.5723   -2.2986    5.6624 H   0  0  0  0  0  0  0  0  0  0  0  0
    1.1396   -3.2662    5.9575 H   0  0  0  0  0  0  0  0  0  0  0  0
    1.4064   -2.5689    4.3952 H   0  0  0  0  0  0  0  0  0  0  0  0
    2.2402   -6.1303    4.2981 H   0  0  0  0  0  0  0  0  0  0  0  0
    6.2565   -4.0033    2.8442 H   0  0  0  0  0  0  0  0  0  0  0  0
    3.9139   -6.3397    1.0903 H   0  0  0  0  0  0  0  0  0  0  0  0
    5.2677   -6.4812   -0.0187 H   0  0  0  0  0  0  0  0  0  0  0  0
    3.8603   -5.5205   -0.4353 H   0  0  0  0  0  0  0  0  0  0  0  0
  1  2  1  0
  1 30  1  0
  1 31  1  0
  1 32  1  0
  2  3  1  0
  2  4  2  3
  3 33  1  0
  3 34  1  0
  3 35  1  0
  4  5  1  0
  4 36  1  0
  5 27  1  0
  5  6  1  0
  5 37  1  6
  6  7  1  0
  6 38  1  0
  6 39  1  0
  7  8  1  0
  7  9  1  0
  7 40  1  1
  8 41  1  0
  8 42  1  0
  8 43  1  0
  9 28  1  0
  9 10  1  0
  9 44  1  6
 10 15  1  0
 10 11  1  0
 10 45  1  6
 11 12  1  0
 11 13  1  0
 11 46  1  1
 12 47  1  0
 13 28  1  0
 13 14  1  6
 13 18  1  0
 14 15  1  0
 15 16  1  0
 15 17  1  0
 16 48  1  0
 16 49  1  0
 16 50  1  0
 17 51  1  0
 17 52  1  0
 17 53  1  0
 18 19  2  0
 18 20  1  0
 20 21  1  0
 20 25  1  0
 20 54  1  1
 21 22  1  0
 21 23  1  0
 21 24  1  0
 22 55  1  0
 22 56  1  0
 22 57  1  0
 23 58  1  0
 23 59  1  0
 23 60  1  0
 24 61  1  0
 25 26  2  0
 25 27  1  0
 27 28  1  0
 27 62  1  1
 28 29  1  6
 29 63  1  0
 29 64  1  0
 29 65  1  0
M  END
>  <i_m_ct_stereo_status>  (81) 
1

>  <s_m_source_file>  (81) 
/var/tmp/pbs.5076255.sched01/tmp6mkrr40i/0ze8ciewu.sdf

>  <i_m_source_file_index>  (81) 
40

>  <i_lp_mmshare_version>  (81) 
48012

>  <i_f3d_flags>  (81) 
0

>  <s_epik_input>  (81) 
Tz1DMVtDQEBIXShDKFtDSDNdKShbQ0gzXSlbT0hdKUMoPU8pW0NASF0yW0NASF0oW0NIXT1DKFtDSDNdKVtDSDNdKVtDSDJdW0NAQEhdKFtDSDNdKVtDQEBIXShbQ0BAXTIoW0NAQF0xMzQpW0NIM10pW0NASF0oW0NASF0zW09IXSlDKE80KShbQ0gzXSlbQ0gzXQ==

>  <s_epik_cmdline>  (81) 
J2VwaWtfcHl0aG9uJywgJy1waHQnLCAnMi4wJywgJy1waCcsICc3LjAnLCAnLXRuJywgJzgnLCAnLW1hJywgJzIwMCcsICctaW1hZScsICc8aW5maWxlLm1hZT4nLCAnLW9tYWUnLCAnPG91dGZpbGUubWFlPic=

>  <r_lp_tautomer_probability>  (81) 
1

>  <r_epik_Ionization_Penalty>  (81) 
0.126134

>  <r_epik_Ionization_Penalty_Charging>  (81) 
0

>  <r_epik_Ionization_Penalty_Neutral>  (81) 
0.126134

>  <r_epik_State_Penalty>  (81) 
1.21799

>  <r_epik_Charging_Adjusted_Penalty>  (81) 
1.21799

>  <i_epik_Tot_Q>  (81) 
0

>  <i_epik_Tot_abs_Q>  (81) 
0

>  <s_lp_Force_Field>  (81) 
OPLS3e

>  <r_lp_Energy>  (81) 
39.3579

>  <b_lp_Chiralities_Consistent>  (81) 
1

>  <s_lp_Variant>  (81) 
30:0-2

>  <s_i_glide_gridfile>  (81) 
pfpi4k_grid

>  <i_i_glide_lignum>  (81) 
40

>  <i_i_glide_rotatable_bonds>  (81) 
4

>  <r_i_docking_score>  (81) 
-2.49761

>  <r_i_glide_ligand_efficiency>  (81) 
-0.0861246

>  <r_i_glide_ligand_efficiency_sa>  (81) 
-0.264602

>  <r_i_glide_ligand_efficiency_ln>  (81) 
-0.57189

>  <r_i_glide_gscore>  (81) 
-2.49761

>  <r_i_glide_lipo>  (81) 
-0.67486

>  <r_i_glide_hbond>  (81) 
0

>  <r_i_glide_metal>  (81) 
-0

>  <r_i_glide_rewards>  (81) 
-1.15216

>  <r_i_glide_evdw>  (81) 
-25.3771

>  <r_i_glide_ecoul>  (81) 
2.38796

>  <r_i_glide_erotb>  (81) 
0.240071

>  <r_i_glide_esite>  (81) 
0

>  <r_i_glide_emodel>  (81) 
-30.1201

>  <r_i_glide_energy>  (81) 
-22.9892

>  <r_i_glide_einternal>  (81) 
2.36083

>  <r_i_glide_intrahb_reward>  (81) 
-0.5

>  <i_i_glide_confnum>  (81) 
1

>  <i_i_glide_posenum>  (81) 
39

>  <r_i_glide_eff_state_penalty>  (81) 
0

>  <ligand_id>  (81) 
30

>  <original_smiles>  (81) 
CC(C)=CC1CC(C)C2C3C(O)C4(OC3(C)C)C(=O)C(C(C)(C)O)C(=O)C1C24C

>  <smiles>  (81) 
[H]OC1([H])C23OC(C([H])([H])[H])(C([H])([H])[H])C1([H])C1([H])C([H])(C([H])([H])[H])C([H])([H])C([H])(C([H])=C(C([H])([H])[H])C([H])([H])[H])C([H])(C(=O)C([H])(C(O[H])(C([H])([H])[H])C([H])([H])[H])C2=O)C31C([H])([H])[H]

$$$$
30:1:1
     RDKit          3D

 65 68  0  0  1  0  0  0  0  0999 V2000
    3.7701   -5.7808    7.1072 C   0  0  0  0  0  0  0  0  0  0  0  0
    5.0867   -5.0323    6.9465 C   0  0  0  0  0  0  0  0  0  0  0  0
    5.8770   -4.9152    8.2344 C   0  0  0  0  0  0  0  0  0  0  0  0
    5.5534   -4.5001    5.7983 C   0  0  0  0  0  0  0  0  0  0  0  0
    4.8968   -4.5019    4.4160 C   0  0  2  0  0  0  0  0  0  0  0  0
    5.7599   -5.3088    3.4131 C   0  0  0  0  0  0  0  0  0  0  0  0
    5.9860   -4.6785    2.0066 C   0  0  1  0  0  0  0  0  0  0  0  0
    6.5273   -5.7557    1.0512 C   0  0  0  0  0  0  0  0  0  0  0  0
    4.7524   -3.9199    1.4280 C   0  0  2  0  0  0  0  0  0  0  0  0
    5.1193   -2.8191    0.3751 C   0  0  2  0  0  0  0  0  0  0  0  0
    5.3992   -1.6193    1.2781 C   0  0  1  0  0  0  0  0  0  0  0  0
    5.7944   -0.4029    0.6788 O   0  0  0  0  0  0  0  0  0  0  0  0
    3.9813   -1.6616    1.8471 C   0  0  2  0  0  0  0  0  0  0  0  0
    3.1695   -1.6567    0.6600 O   0  0  0  0  0  0  0  0  0  0  0  0
    3.8506   -2.3445   -0.3928 C   0  0  0  0  0  0  0  0  0  0  0  0
    4.1302   -1.3451   -1.5472 C   0  0  0  0  0  0  0  0  0  0  0  0
    2.9516   -3.4562   -0.9686 C   0  0  0  0  0  0  0  0  0  0  0  0
    3.5662   -0.5353    2.8209 C   0  0  0  0  0  0  0  0  0  0  0  0
    2.8432    0.3852    2.4365 O   0  0  0  0  0  0  0  0  0  0  0  0
    4.1612   -0.5708    4.2513 C   0  0  1  0  0  0  0  0  0  0  0  0
    3.6640    0.5593    5.2218 C   0  0  0  0  0  0  0  0  0  0  0  0
    2.1410    0.6097    5.4842 C   0  0  0  0  0  0  0  0  0  0  0  0
    4.4354    0.5463    6.5560 C   0  0  0  0  0  0  0  0  0  0  0  0
    4.0254    1.8022    4.6527 O   0  0  0  0  0  0  0  0  0  0  0  0
    4.0248   -2.0220    4.7713 C   0  0  0  0  0  0  0  0  0  0  0  0
    3.4324   -2.3199    5.8085 O   0  0  0  0  0  0  0  0  0  0  0  0
    4.6708   -3.0760    3.8596 C   0  0  2  0  0  0  0  0  0  0  0  0
    3.9384   -3.0924    2.4762 C   0  0  2  0  0  0  0  0  0  0  0  0
    2.4766   -3.6098    2.6312 C   0  0  0  0  0  0  0  0  0  0  0  0
    3.9575   -6.7776    7.5087 H   0  0  0  0  0  0  0  0  0  0  0  0
    3.2094   -5.9086    6.1861 H   0  0  0  0  0  0  0  0  0  0  0  0
    3.1271   -5.2538    7.8117 H   0  0  0  0  0  0  0  0  0  0  0  0
    6.1199   -5.9041    8.6256 H   0  0  0  0  0  0  0  0  0  0  0  0
    5.2972   -4.3851    8.9898 H   0  0  0  0  0  0  0  0  0  0  0  0
    6.8121   -4.3731    8.0858 H   0  0  0  0  0  0  0  0  0  0  0  0
    6.5069   -3.9904    5.8329 H   0  0  0  0  0  0  0  0  0  0  0  0
    3.9314   -4.9946    4.4847 H   0  0  0  0  0  0  0  0  0  0  0  0
    6.7494   -5.4556    3.8471 H   0  0  0  0  0  0  0  0  0  0  0  0
    5.3518   -6.3148    3.3196 H   0  0  0  0  0  0  0  0  0  0  0  0
    6.7936   -3.9526    2.0935 H   0  0  0  0  0  0  0  0  0  0  0  0
    5.8068   -6.5622    0.9104 H   0  0  0  0  0  0  0  0  0  0  0  0
    7.4379   -6.2011    1.4563 H   0  0  0  0  0  0  0  0  0  0  0  0
    6.7683   -5.3401    0.0759 H   0  0  0  0  0  0  0  0  0  0  0  0
    4.1258   -4.6984    0.9960 H   0  0  0  0  0  0  0  0  0  0  0  0
    5.9456   -3.0978   -0.2808 H   0  0  0  0  0  0  0  0  0  0  0  0
    6.1752   -1.8207    2.0079 H   0  0  0  0  0  0  0  0  0  0  0  0
    5.0752   -0.0796    0.1567 H   0  0  0  0  0  0  0  0  0  0  0  0
    5.0066   -1.6356   -2.1257 H   0  0  0  0  0  0  0  0  0  0  0  0
    4.2686   -0.3216   -1.2067 H   0  0  0  0  0  0  0  0  0  0  0  0
    3.2876   -1.2844   -2.2348 H   0  0  0  0  0  0  0  0  0  0  0  0
    3.5203   -4.0881   -1.6489 H   0  0  0  0  0  0  0  0  0  0  0  0
    2.1130   -3.0407   -1.5225 H   0  0  0  0  0  0  0  0  0  0  0  0
    2.5049   -4.0992   -0.2166 H   0  0  0  0  0  0  0  0  0  0  0  0
    5.2309   -0.4059    4.1147 H   0  0  0  0  0  0  0  0  0  0  0  0
    1.7897   -0.2834    5.9944 H   0  0  0  0  0  0  0  0  0  0  0  0
    1.5560    0.7151    4.5734 H   0  0  0  0  0  0  0  0  0  0  0  0
    1.8842    1.4623    6.1146 H   0  0  0  0  0  0  0  0  0  0  0  0
    4.1650   -0.3021    7.1818 H   0  0  0  0  0  0  0  0  0  0  0  0
    4.2354    1.4461    7.1405 H   0  0  0  0  0  0  0  0  0  0  0  0
    5.5108    0.5014    6.3846 H   0  0  0  0  0  0  0  0  0  0  0  0
    3.6340    1.8631    3.7887 H   0  0  0  0  0  0  0  0  0  0  0  0
    5.6729   -2.6774    3.7283 H   0  0  0  0  0  0  0  0  0  0  0  0
    1.9502   -3.1523    3.4713 H   0  0  0  0  0  0  0  0  0  0  0  0
    2.4467   -4.6919    2.7814 H   0  0  0  0  0  0  0  0  0  0  0  0
    1.8593   -3.3956    1.7570 H   0  0  0  0  0  0  0  0  0  0  0  0
  1  2  1  0
  1 30  1  0
  1 31  1  0
  1 32  1  0
  2  3  1  0
  2  4  2  3
  3 33  1  0
  3 34  1  0
  3 35  1  0
  4  5  1  0
  4 36  1  0
  5 27  1  0
  5  6  1  0
  5 37  1  1
  6  7  1  0
  6 38  1  0
  6 39  1  0
  7  8  1  0
  7  9  1  0
  7 40  1  1
  8 41  1  0
  8 42  1  0
  8 43  1  0
  9 28  1  0
  9 10  1  0
  9 44  1  6
 10 15  1  0
 10 11  1  0
 10 45  1  6
 11 12  1  0
 11 13  1  0
 11 46  1  1
 12 47  1  0
 13 28  1  0
 13 14  1  6
 13 18  1  0
 14 15  1  0
 15 16  1  0
 15 17  1  0
 16 48  1  0
 16 49  1  0
 16 50  1  0
 17 51  1  0
 17 52  1  0
 17 53  1  0
 18 19  2  0
 18 20  1  0
 20 21  1  0
 20 25  1  0
 20 54  1  6
 21 22  1  0
 21 23  1  0
 21 24  1  0
 22 55  1  0
 22 56  1  0
 22 57  1  0
 23 58  1  0
 23 59  1  0
 23 60  1  0
 24 61  1  0
 25 26  2  0
 25 27  1  0
 27 28  1  0
 27 62  1  6
 28 29  1  1
 29 63  1  0
 29 64  1  0
 29 65  1  0
M  END
>  <i_m_ct_stereo_status>  (82) 
1

>  <s_m_source_file>  (82) 
/var/tmp/pbs.5076255.sched01/tmp6mkrr40i/0ze8ciewu.sdf

>  <i_m_source_file_index>  (82) 
40

>  <i_lp_mmshare_version>  (82) 
48012

>  <i_f3d_flags>  (82) 
0

>  <s_epik_input>  (82) 
Tz1DMVtDQEBIXShDKFtDSDNdKShbQ0gzXSlbT0hdKUMoPU8pW0NASF0yW0NASF0oW0NIXT1DKFtDSDNdKVtDSDNdKVtDSDJdW0NAQEhdKFtDSDNdKVtDQEBIXShbQ0BAXTIoW0NAQF0xMzQpW0NIM10pW0NASF0oW0NASF0zW09IXSlDKE80KShbQ0gzXSlbQ0gzXQ==

>  <s_epik_cmdline>  (82) 
J2VwaWtfcHl0aG9uJywgJy1waHQnLCAnMi4wJywgJy1waCcsICc3LjAnLCAnLXRuJywgJzgnLCAnLW1hJywgJzIwMCcsICctaW1hZScsICc8aW5maWxlLm1hZT4nLCAnLW9tYWUnLCAnPG91dGZpbGUubWFlPic=

>  <r_lp_tautomer_probability>  (82) 
1

>  <r_epik_Ionization_Penalty>  (82) 
0.126134

>  <r_epik_Ionization_Penalty_Charging>  (82) 
0

>  <r_epik_Ionization_Penalty_Neutral>  (82) 
0.126134

>  <r_epik_State_Penalty>  (82) 
1.21799

>  <r_epik_Charging_Adjusted_Penalty>  (82) 
1.21799

>  <i_epik_Tot_Q>  (82) 
0

>  <i_epik_Tot_abs_Q>  (82) 
0

>  <s_lp_Force_Field>  (82) 
OPLS3e

>  <r_lp_Energy>  (82) 
39.3579

>  <b_lp_Chiralities_Consistent>  (82) 
1

>  <s_lp_Variant>  (82) 
30:0-2

>  <s_i_glide_gridfile>  (82) 
pfpi4k_grid

>  <i_i_glide_lignum>  (82) 
40

>  <i_i_glide_rotatable_bonds>  (82) 
4

>  <r_i_docking_score>  (82) 
-2.45125

>  <r_i_glide_ligand_efficiency>  (82) 
-0.0845257

>  <r_i_glide_ligand_efficiency_sa>  (82) 
-0.25969

>  <r_i_glide_ligand_efficiency_ln>  (82) 
-0.561273

>  <r_i_glide_gscore>  (82) 
-2.45125

>  <r_i_glide_lipo>  (82) 
-0.377768

>  <r_i_glide_hbond>  (82) 
0

>  <r_i_glide_metal>  (82) 
-0

>  <r_i_glide_rewards>  (82) 
-1.1659

>  <r_i_glide_evdw>  (82) 
-22.3151

>  <r_i_glide_ecoul>  (82) 
-0.212642

>  <r_i_glide_erotb>  (82) 
0.240071

>  <r_i_glide_esite>  (82) 
0

>  <r_i_glide_emodel>  (82) 
-30.8595

>  <r_i_glide_energy>  (82) 
-22.5278

>  <r_i_glide_einternal>  (82) 
0.118594

>  <r_i_glide_intrahb_reward>  (82) 
-0.5

>  <i_i_glide_confnum>  (82) 
1

>  <i_i_glide_posenum>  (82) 
1

>  <r_i_glide_eff_state_penalty>  (82) 
0

>  <ligand_id>  (82) 
30

>  <original_smiles>  (82) 
CC(C)=CC1CC(C)C2C3C(O)C4(OC3(C)C)C(=O)C(C(C)(C)O)C(=O)C1C24C

>  <smiles>  (82) 
[H]OC1([H])C23OC(C([H])([H])[H])(C([H])([H])[H])C1([H])C1([H])C([H])(C([H])([H])[H])C([H])([H])C([H])(C([H])=C(C([H])([H])[H])C([H])([H])[H])C([H])(C(=O)C([H])(C(O[H])(C([H])([H])[H])C([H])([H])[H])C2=O)C31C([H])([H])[H]

$$$$
30:1:2
     RDKit          3D

 65 68  0  0  1  0  0  0  0  0999 V2000
    2.2890   -6.2520    6.7536 C   0  0  0  0  0  0  0  0  0  0  0  0
    3.7907   -6.0048    6.7426 C   0  0  0  0  0  0  0  0  0  0  0  0
    4.4603   -6.2859    8.0733 C   0  0  0  0  0  0  0  0  0  0  0  0
    4.5082   -5.5771    5.6853 C   0  0  0  0  0  0  0  0  0  0  0  0
    4.0116   -5.2279    4.2810 C   0  0  2  0  0  0  0  0  0  0  0  0
    4.6036   -6.2138    3.2469 C   0  0  0  0  0  0  0  0  0  0  0  0
    5.1597   -5.6004    1.9330 C   0  0  1  0  0  0  0  0  0  0  0  0
    5.3457   -6.7139    0.8924 C   0  0  0  0  0  0  0  0  0  0  0  0
    4.3361   -4.4014    1.3648 C   0  0  2  0  0  0  0  0  0  0  0  0
    5.1602   -3.4356    0.4441 C   0  0  2  0  0  0  0  0  0  0  0  0
    5.7822   -2.4986    1.4771 C   0  0  1  0  0  0  0  0  0  0  0  0
    6.6280   -1.4600    1.0282 O   0  0  0  0  0  0  0  0  0  0  0  0
    4.4039   -2.0615    1.9722 C   0  0  2  0  0  0  0  0  0  0  0  0
    3.7543   -1.6575    0.7514 O   0  0  0  0  0  0  0  0  0  0  0  0
    4.2212   -2.4656   -0.3316 C   0  0  0  0  0  0  0  0  0  0  0  0
    4.9368   -1.5486   -1.3588 C   0  0  0  0  0  0  0  0  0  0  0  0
    3.0316   -3.1207   -1.0670 C   0  0  0  0  0  0  0  0  0  0  0  0
    4.3380   -0.9493    3.0425 C   0  0  0  0  0  0  0  0  0  0  0  0
    3.9946    0.1889    2.7266 O   0  0  0  0  0  0  0  0  0  0  0  0
    4.7655   -1.3027    4.4858 C   0  0  1  0  0  0  0  0  0  0  0  0
    4.6433   -0.1485    5.5412 C   0  0  0  0  0  0  0  0  0  0  0  0
    3.2198    0.4105    5.7673 C   0  0  0  0  0  0  0  0  0  0  0  0
    5.2865   -0.5371    6.8846 C   0  0  0  0  0  0  0  0  0  0  0  0
    5.4323    0.9404    5.0979 O   0  0  0  0  0  0  0  0  0  0  0  0
    4.0800   -2.6387    4.8513 C   0  0  0  0  0  0  0  0  0  0  0  0
    3.3432   -2.7794    5.8260 O   0  0  0  0  0  0  0  0  0  0  0  0
    4.3678   -3.7805    3.8644 C   0  0  2  0  0  0  0  0  0  0  0  0
    3.7961   -3.4182    2.4513 C   0  0  2  0  0  0  0  0  0  0  0  0
    2.2407   -3.3659    2.4804 C   0  0  0  0  0  0  0  0  0  0  0  0
    2.0848   -7.2811    7.0512 H   0  0  0  0  0  0  0  0  0  0  0  0
    1.7999   -6.0939    5.7964 H   0  0  0  0  0  0  0  0  0  0  0  0
    1.8110   -5.5941    7.4789 H   0  0  0  0  0  0  0  0  0  0  0  0
    4.3119   -7.3266    8.3618 H   0  0  0  0  0  0  0  0  0  0  0  0
    4.0394   -5.6528    8.8525 H   0  0  0  0  0  0  0  0  0  0  0  0
    5.5334   -6.0982    8.0303 H   0  0  0  0  0  0  0  0  0  0  0  0
    5.5731   -5.4441    5.8223 H   0  0  0  0  0  0  0  0  0  0  0  0
    2.9321   -5.3306    4.2506 H   0  0  0  0  0  0  0  0  0  0  0  0
    5.4384   -6.7392    3.7103 H   0  0  0  0  0  0  0  0  0  0  0  0
    3.8729   -6.9910    3.0276 H   0  0  0  0  0  0  0  0  0  0  0  0
    6.1636   -5.2402    2.1679 H   0  0  0  0  0  0  0  0  0  0  0  0
    4.3973   -7.1906    0.6329 H   0  0  0  0  0  0  0  0  0  0  0  0
    6.0029   -7.4950    1.2791 H   0  0  0  0  0  0  0  0  0  0  0  0
    5.7890   -6.3123   -0.0150 H   0  0  0  0  0  0  0  0  0  0  0  0
    3.5089   -4.8562    0.8247 H   0  0  0  0  0  0  0  0  0  0  0  0
    5.8814   -3.9469   -0.1972 H   0  0  0  0  0  0  0  0  0  0  0  0
    6.3671   -3.0359    2.2114 H   0  0  0  0  0  0  0  0  0  0  0  0
    6.0911   -0.8170    0.5958 H   0  0  0  0  0  0  0  0  0  0  0  0
    5.6941   -2.0980   -1.9185 H   0  0  0  0  0  0  0  0  0  0  0  0
    5.4057   -0.6768   -0.9063 H   0  0  0  0  0  0  0  0  0  0  0  0
    4.2365   -1.1304   -2.0809 H   0  0  0  0  0  0  0  0  0  0  0  0
    3.3809   -3.8545   -1.7921 H   0  0  0  0  0  0  0  0  0  0  0  0
    2.4564   -2.3752   -1.6117 H   0  0  0  0  0  0  0  0  0  0  0  0
    2.3204   -3.6061   -0.4079 H   0  0  0  0  0  0  0  0  0  0  0  0
    5.8189   -1.5343    4.4105 H   0  0  0  0  0  0  0  0  0  0  0  0
    2.5537   -0.3395    6.1856 H   0  0  0  0  0  0  0  0  0  0  0  0
    2.7595    0.7786    4.8531 H   0  0  0  0  0  0  0  0  0  0  0  0
    3.2336    1.2479    6.4662 H   0  0  0  0  0  0  0  0  0  0  0  0
    4.7060   -1.2882    7.4157 H   0  0  0  0  0  0  0  0  0  0  0  0
    5.3735    0.3261    7.5480 H   0  0  0  0  0  0  0  0  0  0  0  0
    6.2902   -0.9370    6.7366 H   0  0  0  0  0  0  0  0  0  0  0  0
    5.0469    1.2720    4.2971 H   0  0  0  0  0  0  0  0  0  0  0  0
    5.4551   -3.7715    3.8214 H   0  0  0  0  0  0  0  0  0  0  0  0
    1.8509   -2.8128    3.3376 H   0  0  0  0  0  0  0  0  0  0  0  0
    1.8078   -4.3682    2.5169 H   0  0  0  0  0  0  0  0  0  0  0  0
    1.8217   -2.8689    1.6019 H   0  0  0  0  0  0  0  0  0  0  0  0
  1  2  1  0
  1 30  1  0
  1 31  1  0
  1 32  1  0
  2  3  1  0
  2  4  2  3
  3 33  1  0
  3 34  1  0
  3 35  1  0
  4  5  1  0
  4 36  1  0
  5 27  1  0
  5  6  1  0
  5 37  1  1
  6  7  1  0
  6 38  1  0
  6 39  1  0
  7  8  1  0
  7  9  1  0
  7 40  1  1
  8 41  1  0
  8 42  1  0
  8 43  1  0
  9 28  1  0
  9 10  1  0
  9 44  1  6
 10 15  1  0
 10 11  1  0
 10 45  1  6
 11 12  1  0
 11 13  1  0
 11 46  1  1
 12 47  1  0
 13 28  1  0
 13 14  1  6
 13 18  1  0
 14 15  1  0
 15 16  1  0
 15 17  1  0
 16 48  1  0
 16 49  1  0
 16 50  1  0
 17 51  1  0
 17 52  1  0
 17 53  1  0
 18 19  2  0
 18 20  1  0
 20 21  1  0
 20 25  1  0
 20 54  1  6
 21 22  1  0
 21 23  1  0
 21 24  1  0
 22 55  1  0
 22 56  1  0
 22 57  1  0
 23 58  1  0
 23 59  1  0
 23 60  1  0
 24 61  1  0
 25 26  2  0
 25 27  1  0
 27 28  1  0
 27 62  1  6
 28 29  1  1
 29 63  1  0
 29 64  1  0
 29 65  1  0
M  END
>  <i_m_ct_stereo_status>  (83) 
1

>  <s_m_source_file>  (83) 
/var/tmp/pbs.5076255.sched01/tmp6mkrr40i/0ze8ciewu.sdf

>  <i_m_source_file_index>  (83) 
40

>  <i_lp_mmshare_version>  (83) 
48012

>  <i_f3d_flags>  (83) 
0

>  <s_epik_input>  (83) 
Tz1DMVtDQEBIXShDKFtDSDNdKShbQ0gzXSlbT0hdKUMoPU8pW0NASF0yW0NASF0oW0NIXT1DKFtDSDNdKVtDSDNdKVtDSDJdW0NAQEhdKFtDSDNdKVtDQEBIXShbQ0BAXTIoW0NAQF0xMzQpW0NIM10pW0NASF0oW0NASF0zW09IXSlDKE80KShbQ0gzXSlbQ0gzXQ==

>  <s_epik_cmdline>  (83) 
J2VwaWtfcHl0aG9uJywgJy1waHQnLCAnMi4wJywgJy1waCcsICc3LjAnLCAnLXRuJywgJzgnLCAnLW1hJywgJzIwMCcsICctaW1hZScsICc8aW5maWxlLm1hZT4nLCAnLW9tYWUnLCAnPG91dGZpbGUubWFlPic=

>  <r_lp_tautomer_probability>  (83) 
1

>  <r_epik_Ionization_Penalty>  (83) 
0.126134

>  <r_epik_Ionization_Penalty_Charging>  (83) 
0

>  <r_epik_Ionization_Penalty_Neutral>  (83) 
0.126134

>  <r_epik_State_Penalty>  (83) 
1.21799

>  <r_epik_Charging_Adjusted_Penalty>  (83) 
1.21799

>  <i_epik_Tot_Q>  (83) 
0

>  <i_epik_Tot_abs_Q>  (83) 
0

>  <s_lp_Force_Field>  (83) 
OPLS3e

>  <r_lp_Energy>  (83) 
39.3579

>  <b_lp_Chiralities_Consistent>  (83) 
1

>  <s_lp_Variant>  (83) 
30:0-2

>  <s_i_glide_gridfile>  (83) 
pfpi4k_grid

>  <i_i_glide_lignum>  (83) 
40

>  <i_i_glide_rotatable_bonds>  (83) 
4

>  <r_i_docking_score>  (83) 
-2.42594

>  <r_i_glide_ligand_efficiency>  (83) 
-0.0836532

>  <r_i_glide_ligand_efficiency_sa>  (83) 
-0.257009

>  <r_i_glide_ligand_efficiency_ln>  (83) 
-0.555479

>  <r_i_glide_gscore>  (83) 
-2.42594

>  <r_i_glide_lipo>  (83) 
-0.349914

>  <r_i_glide_hbond>  (83) 
0

>  <r_i_glide_metal>  (83) 
-0

>  <r_i_glide_rewards>  (83) 
-1.20455

>  <r_i_glide_evdw>  (83) 
-21.4569

>  <r_i_glide_ecoul>  (83) 
-0.258052

>  <r_i_glide_erotb>  (83) 
0.240071

>  <r_i_glide_esite>  (83) 
0

>  <r_i_glide_emodel>  (83) 
-29.8983

>  <r_i_glide_energy>  (83) 
-21.715

>  <r_i_glide_einternal>  (83) 
0.24952

>  <r_i_glide_intrahb_reward>  (83) 
-0.5

>  <i_i_glide_confnum>  (83) 
2

>  <i_i_glide_posenum>  (83) 
10

>  <r_i_glide_eff_state_penalty>  (83) 
0

>  <ligand_id>  (83) 
30

>  <original_smiles>  (83) 
CC(C)=CC1CC(C)C2C3C(O)C4(OC3(C)C)C(=O)C(C(C)(C)O)C(=O)C1C24C

>  <smiles>  (83) 
[H]OC1([H])C23OC(C([H])([H])[H])(C([H])([H])[H])C1([H])C1([H])C([H])(C([H])([H])[H])C([H])([H])C([H])(C([H])=C(C([H])([H])[H])C([H])([H])[H])C([H])(C(=O)C([H])(C(O[H])(C([H])([H])[H])C([H])([H])[H])C2=O)C31C([H])([H])[H]

$$$$
32:0:0
     RDKit          3D

 51 54  0  0  1  0  0  0  0  0999 V2000
    5.8497   -2.6517   -2.1070 C   0  0  0  0  0  0  0  0  0  0  0  0
    4.4204   -2.1754   -1.7727 C   0  0  2  0  0  0  0  0  0  0  0  0
    4.4320   -1.1189   -0.6320 C   0  0  0  0  0  0  0  0  0  0  0  0
    4.8116   -1.7015    0.7533 C   0  0  0  0  0  0  0  0  0  0  0  0
    4.3148   -3.1544    0.9603 C   0  0  2  0  0  0  0  0  0  0  0  0
    3.0868   -3.4471    0.0576 C   0  0  2  0  0  0  0  0  0  0  0  0
    2.3956   -4.7298    0.4828 C   0  0  0  0  0  0  0  0  0  0  0  0
    2.2388   -5.0303    1.7877 C   0  0  0  0  0  0  0  0  0  0  0  0
    2.7846   -4.1049    2.8841 C   0  0  1  0  0  0  0  0  0  0  0  0
    1.8378   -2.8805    3.0185 C   0  0  0  0  0  0  0  0  0  0  0  0
    2.8018   -4.7056    4.3101 C   0  0  0  0  0  0  0  0  0  0  0  0
    1.7398   -5.6324    4.7800 C   0  0  0  0  0  0  0  0  0  0  0  0
    0.6533   -5.8063    4.2287 O   0  0  0  0  0  0  0  0  0  0  0  0
    3.7747   -4.3890    5.1968 C   0  0  0  0  0  0  0  0  0  0  0  0
    4.9314   -3.4392    4.9085 C   0  0  0  0  0  0  0  0  0  0  0  0
    4.8506   -2.7782    3.5161 C   0  0  0  0  0  0  0  0  0  0  0  0
    4.2594   -3.7278    2.4399 C   0  0  2  0  0  0  0  0  0  0  0  0
    5.1693   -5.0028    2.4142 C   0  0  0  0  0  0  0  0  0  0  0  0
    3.4778   -3.3743   -1.4443 C   0  0  1  0  0  0  0  0  0  0  0  0
    2.2512   -3.2731   -2.3904 C   0  0  0  0  0  0  0  0  0  0  0  0
    2.6965   -2.4550   -3.6009 C   0  0  0  0  0  0  0  0  0  0  0  0
    3.8120   -1.5922   -3.0489 C   0  0  0  0  0  0  0  0  0  0  0  0
    4.2144   -0.5689   -3.6006 O   0  0  0  0  0  0  0  0  0  0  0  0
    6.3109   -3.2105   -1.2966 H   0  0  0  0  0  0  0  0  0  0  0  0
    6.4985   -1.8063   -2.3113 H   0  0  0  0  0  0  0  0  0  0  0  0
    5.8731   -3.2867   -2.9950 H   0  0  0  0  0  0  0  0  0  0  0  0
    5.0959   -0.2867   -0.8760 H   0  0  0  0  0  0  0  0  0  0  0  0
    3.4328   -0.6825   -0.5512 H   0  0  0  0  0  0  0  0  0  0  0  0
    5.8996   -1.7030    0.8585 H   0  0  0  0  0  0  0  0  0  0  0  0
    4.4284   -1.0357    1.5248 H   0  0  0  0  0  0  0  0  0  0  0  0
    5.0922   -3.7359    0.4700 H   0  0  0  0  0  0  0  0  0  0  0  0
    2.3456   -2.6626    0.2102 H   0  0  0  0  0  0  0  0  0  0  0  0
    2.0046   -5.3676   -0.2954 H   0  0  0  0  0  0  0  0  0  0  0  0
    1.7433   -5.9464    2.0562 H   0  0  0  0  0  0  0  0  0  0  0  0
    0.8046   -3.2103    3.1245 H   0  0  0  0  0  0  0  0  0  0  0  0
    1.8708   -2.1913    2.1832 H   0  0  0  0  0  0  0  0  0  0  0  0
    2.0561   -2.2891    3.9069 H   0  0  0  0  0  0  0  0  0  0  0  0
    1.9663   -6.1387    5.7216 H   0  0  0  0  0  0  0  0  0  0  0  0
    3.7703   -4.8122    6.1902 H   0  0  0  0  0  0  0  0  0  0  0  0
    4.9768   -2.6727    5.6857 H   0  0  0  0  0  0  0  0  0  0  0  0
    5.8542   -4.0179    4.9889 H   0  0  0  0  0  0  0  0  0  0  0  0
    4.2453   -1.8771    3.6037 H   0  0  0  0  0  0  0  0  0  0  0  0
    5.8377   -2.4254    3.2233 H   0  0  0  0  0  0  0  0  0  0  0  0
    5.1537   -5.5813    3.3347 H   0  0  0  0  0  0  0  0  0  0  0  0
    6.2110   -4.7231    2.2419 H   0  0  0  0  0  0  0  0  0  0  0  0
    4.8846   -5.6943    1.6207 H   0  0  0  0  0  0  0  0  0  0  0  0
    4.0324   -4.2778   -1.6932 H   0  0  0  0  0  0  0  0  0  0  0  0
    1.8688   -4.2506   -2.6907 H   0  0  0  0  0  0  0  0  0  0  0  0
    1.4192   -2.7557   -1.9135 H   0  0  0  0  0  0  0  0  0  0  0  0
    3.1056   -3.0920   -4.3849 H   0  0  0  0  0  0  0  0  0  0  0  0
    1.8892   -1.8628   -4.0320 H   0  0  0  0  0  0  0  0  0  0  0  0
  2  1  1  6
  1 24  1  0
  1 25  1  0
  1 26  1  0
  2 19  1  0
  2 22  1  0
  2  3  1  0
  3  4  1  0
  3 27  1  0
  3 28  1  0
  4  5  1  0
  4 29  1  0
  4 30  1  0
  5 17  1  0
  5  6  1  0
  5 31  1  6
  6  7  1  0
  6 19  1  0
  6 32  1  6
  7  8  2  0
  7 33  1  0
  8  9  1  0
  8 34  1  0
  9 17  1  0
  9 10  1  1
  9 11  1  0
 10 35  1  0
 10 36  1  0
 10 37  1  0
 11 12  1  0
 11 14  2  0
 12 13  2  0
 12 38  1  0
 14 15  1  0
 14 39  1  0
 15 16  1  0
 15 40  1  0
 15 41  1  0
 16 17  1  0
 16 42  1  0
 16 43  1  0
 17 18  1  6
 18 44  1  0
 18 45  1  0
 18 46  1  0
 19 20  1  0
 19 47  1  6
 20 21  1  0
 20 48  1  0
 20 49  1  0
 21 22  1  0
 21 50  1  0
 21 51  1  0
 22 23  2  0
M  END
>  <i_m_ct_stereo_status>  (84) 
1

>  <s_m_source_file>  (84) 
/var/tmp/pbs.5076255.sched01/tmpxs4nfypl/40fgi3imsd.sdf

>  <i_m_source_file_index>  (84) 
2

>  <i_lp_mmshare_version>  (84) 
48012

>  <i_f3d_flags>  (84) 
0

>  <s_epik_input>  (84) 
Tz1DMVtDSDJdW0NIMl1bQ0BASF0oW0NAQF0xMltDSDNdKVtDQEBIXTNbQ0BASF0oW0NIMl1bQ0gyXTIpW0NAXTQoW0NIM10pW0NAQF0oW0NIM10pKFtDSF09W0NIXTMpQyhbQ0hdPU8pPVtDSF1bQ0gyXVtDSDJdNA==

>  <s_epik_cmdline>  (84) 
J2VwaWtfcHl0aG9uJywgJy1waHQnLCAnMi4wJywgJy1waCcsICc3LjAnLCAnLXRuJywgJzgnLCAnLW1hJywgJzIwMCcsICctaW1hZScsICc8aW5maWxlLm1hZT4nLCAnLW9tYWUnLCAnPG91dGZpbGUubWFlPic=

>  <r_lp_tautomer_probability>  (84) 
1

>  <r_epik_Ionization_Penalty>  (84) 
5.39389e-14

>  <r_epik_Ionization_Penalty_Charging>  (84) 
0

>  <r_epik_Ionization_Penalty_Neutral>  (84) 
5.39389e-14

>  <r_epik_State_Penalty>  (84) 
-0

>  <r_epik_Charging_Adjusted_Penalty>  (84) 
0

>  <i_epik_Tot_Q>  (84) 
0

>  <i_epik_Tot_abs_Q>  (84) 
0

>  <s_lp_Force_Field>  (84) 
OPLS3e

>  <r_lp_Energy>  (84) 
49.0507

>  <b_lp_Chiralities_Consistent>  (84) 
1

>  <s_lp_Variant>  (84) 
32:0-1

>  <s_i_glide_gridfile>  (84) 
pfpi4k_grid

>  <i_i_glide_lignum>  (84) 
2

>  <i_i_glide_rotatable_bonds>  (84) 
1

>  <r_i_docking_score>  (84) 
-3.45004

>  <r_i_glide_ligand_efficiency>  (84) 
-0.150002

>  <r_i_glide_ligand_efficiency_sa>  (84) 
-0.426585

>  <r_i_glide_ligand_efficiency_ln>  (84) 
-0.834252

>  <r_i_glide_gscore>  (84) 
-3.45004

>  <r_i_glide_lipo>  (84) 
-0.656611

>  <r_i_glide_hbond>  (84) 
0

>  <r_i_glide_metal>  (84) 
-0

>  <r_i_glide_rewards>  (84) 
-1.32269

>  <r_i_glide_evdw>  (84) 
-25.282

>  <r_i_glide_ecoul>  (84) 
-1.36915

>  <r_i_glide_erotb>  (84) 
0

>  <r_i_glide_esite>  (84) 
-0.00127467

>  <r_i_glide_emodel>  (84) 
-32.2686

>  <r_i_glide_energy>  (84) 
-26.6511

>  <r_i_glide_einternal>  (84) 
0.0142855

>  <r_i_glide_intrahb_reward>  (84) 
-0

>  <i_i_glide_confnum>  (84) 
1

>  <i_i_glide_posenum>  (84) 
17

>  <r_i_glide_eff_state_penalty>  (84) 
0

>  <ligand_id>  (84) 
32

>  <original_smiles>  (84) 
CC12CCC3C(C=CC4(C)C(C=O)=CCCC34C)C1CCC2=O

>  <smiles>  (84) 
[H]C(=O)C1=C([H])C([H])([H])C([H])([H])C2(C([H])([H])[H])C1(C([H])([H])[H])C([H])=C([H])C1([H])C3([H])C([H])([H])C([H])([H])C(=O)C3(C([H])([H])[H])C([H])([H])C([H])([H])C12[H]

$$$$
32:0:1
     RDKit          3D

 51 54  0  0  1  0  0  0  0  0999 V2000
    6.0926   -2.7079   -1.8347 C   0  0  0  0  0  0  0  0  0  0  0  0
    4.6659   -2.2570   -1.4551 C   0  0  2  0  0  0  0  0  0  0  0  0
    4.6711   -1.4521   -0.1257 C   0  0  0  0  0  0  0  0  0  0  0  0
    4.9586   -2.3200    1.1235 C   0  0  0  0  0  0  0  0  0  0  0  0
    4.3872   -3.7543    1.0134 C   0  0  2  0  0  0  0  0  0  0  0  0
    3.1860   -3.7851    0.0257 C   0  0  2  0  0  0  0  0  0  0  0  0
    2.4007   -5.0712    0.1759 C   0  0  0  0  0  0  0  0  0  0  0  0
    2.1894   -5.6344    1.3762 C   0  0  0  0  0  0  0  0  0  0  0  0
    2.7336   -4.9860    2.6538 C   0  0  1  0  0  0  0  0  0  0  0  0
    1.8387   -3.7655    3.0018 C   0  0  0  0  0  0  0  0  0  0  0  0
    2.6586   -5.8624    3.9272 C   0  0  0  0  0  0  0  0  0  0  0  0
    1.5341   -6.8045    4.1551 C   0  0  0  0  0  0  0  0  0  0  0  0
    0.4583   -6.7759    3.5542 O   0  0  0  0  0  0  0  0  0  0  0  0
    3.6027   -5.7847    4.8951 C   0  0  0  0  0  0  0  0  0  0  0  0
    4.8112   -4.8563    4.8451 C   0  0  0  0  0  0  0  0  0  0  0  0
    4.8188   -3.9265    3.6119 C   0  0  0  0  0  0  0  0  0  0  0  0
    4.2399   -4.6077    2.3445 C   0  0  2  0  0  0  0  0  0  0  0  0
    5.0935   -5.8981    2.0944 C   0  0  0  0  0  0  0  0  0  0  0  0
    3.6606   -3.4477   -1.4201 C   0  0  1  0  0  0  0  0  0  0  0  0
    2.4972   -3.0950   -2.3847 C   0  0  0  0  0  0  0  0  0  0  0  0
    3.0243   -2.0661   -3.3755 C   0  0  0  0  0  0  0  0  0  0  0  0
    4.1374   -1.3902   -2.5949 C   0  0  0  0  0  0  0  0  0  0  0  0
    4.5940   -0.2818   -2.8654 O   0  0  0  0  0  0  0  0  0  0  0  0
    6.4883   -3.4400   -1.1380 H   0  0  0  0  0  0  0  0  0  0  0  0
    6.7783   -1.8650   -1.8396 H   0  0  0  0  0  0  0  0  0  0  0  0
    6.1276   -3.1560   -2.8285 H   0  0  0  0  0  0  0  0  0  0  0  0
    5.3800   -0.6229   -0.1756 H   0  0  0  0  0  0  0  0  0  0  0  0
    3.6921   -0.9851    0.0016 H   0  0  0  0  0  0  0  0  0  0  0  0
    6.0375   -2.3995    1.2603 H   0  0  0  0  0  0  0  0  0  0  0  0
    4.5729   -1.7999    2.0005 H   0  0  0  0  0  0  0  0  0  0  0  0
    5.1584   -4.2699    0.4428 H   0  0  0  0  0  0  0  0  0  0  0  0
    2.4824   -3.0011    0.3028 H   0  0  0  0  0  0  0  0  0  0  0  0
    1.9977   -5.5188   -0.7173 H   0  0  0  0  0  0  0  0  0  0  0  0
    1.6449   -6.5606    1.4327 H   0  0  0  0  0  0  0  0  0  0  0  0
    0.7905   -4.0565    3.0008 H   0  0  0  0  0  0  0  0  0  0  0  0
    1.9406   -2.9294    2.3210 H   0  0  0  0  0  0  0  0  0  0  0  0
    2.0415   -3.3765    3.9991 H   0  0  0  0  0  0  0  0  0  0  0  0
    1.6956   -7.5187    4.9649 H   0  0  0  0  0  0  0  0  0  0  0  0
    3.5358   -6.3969    5.7827 H   0  0  0  0  0  0  0  0  0  0  0  0
    4.8586   -4.2646    5.7621 H   0  0  0  0  0  0  0  0  0  0  0  0
    5.7057   -5.4819    4.8385 H   0  0  0  0  0  0  0  0  0  0  0  0
    4.2521   -3.0318    3.8596 H   0  0  0  0  0  0  0  0  0  0  0  0
    5.8283   -3.5732    3.4303 H   0  0  0  0  0  0  0  0  0  0  0  0
    5.0118   -6.6487    2.8776 H   0  0  0  0  0  0  0  0  0  0  0  0
    6.1517   -5.6464    2.0210 H   0  0  0  0  0  0  0  0  0  0  0  0
    4.8158   -6.4022    1.1683 H   0  0  0  0  0  0  0  0  0  0  0  0
    4.1892   -4.3116   -1.8234 H   0  0  0  0  0  0  0  0  0  0  0  0
    2.1061   -3.9719   -2.8992 H   0  0  0  0  0  0  0  0  0  0  0  0
    1.6585   -2.6590   -1.8464 H   0  0  0  0  0  0  0  0  0  0  0  0
    3.4390   -2.5514   -4.2572 H   0  0  0  0  0  0  0  0  0  0  0  0
    2.2521   -1.3693   -3.7020 H   0  0  0  0  0  0  0  0  0  0  0  0
  2  1  1  6
  1 24  1  0
  1 25  1  0
  1 26  1  0
  2 19  1  0
  2 22  1  0
  2  3  1  0
  3  4  1  0
  3 27  1  0
  3 28  1  0
  4  5  1  0
  4 29  1  0
  4 30  1  0
  5 17  1  0
  5  6  1  0
  5 31  1  6
  6  7  1  0
  6 19  1  0
  6 32  1  1
  7  8  2  0
  7 33  1  0
  8  9  1  0
  8 34  1  0
  9 17  1  0
  9 10  1  1
  9 11  1  0
 10 35  1  0
 10 36  1  0
 10 37  1  0
 11 12  1  0
 11 14  2  0
 12 13  2  0
 12 38  1  0
 14 15  1  0
 14 39  1  0
 15 16  1  0
 15 40  1  0
 15 41  1  0
 16 17  1  0
 16 42  1  0
 16 43  1  0
 17 18  1  6
 18 44  1  0
 18 45  1  0
 18 46  1  0
 19 20  1  0
 19 47  1  6
 20 21  1  0
 20 48  1  0
 20 49  1  0
 21 22  1  0
 21 50  1  0
 21 51  1  0
 22 23  2  0
M  END
>  <i_m_ct_stereo_status>  (85) 
1

>  <s_m_source_file>  (85) 
/var/tmp/pbs.5076255.sched01/tmpxs4nfypl/40fgi3imsd.sdf

>  <i_m_source_file_index>  (85) 
2

>  <i_lp_mmshare_version>  (85) 
48012

>  <i_f3d_flags>  (85) 
0

>  <s_epik_input>  (85) 
Tz1DMVtDSDJdW0NIMl1bQ0BASF0oW0NAQF0xMltDSDNdKVtDQEBIXTNbQ0BASF0oW0NIMl1bQ0gyXTIpW0NAXTQoW0NIM10pW0NAQF0oW0NIM10pKFtDSF09W0NIXTMpQyhbQ0hdPU8pPVtDSF1bQ0gyXVtDSDJdNA==

>  <s_epik_cmdline>  (85) 
J2VwaWtfcHl0aG9uJywgJy1waHQnLCAnMi4wJywgJy1waCcsICc3LjAnLCAnLXRuJywgJzgnLCAnLW1hJywgJzIwMCcsICctaW1hZScsICc8aW5maWxlLm1hZT4nLCAnLW9tYWUnLCAnPG91dGZpbGUubWFlPic=

>  <r_lp_tautomer_probability>  (85) 
1

>  <r_epik_Ionization_Penalty>  (85) 
5.39389e-14

>  <r_epik_Ionization_Penalty_Charging>  (85) 
0

>  <r_epik_Ionization_Penalty_Neutral>  (85) 
5.39389e-14

>  <r_epik_State_Penalty>  (85) 
-0

>  <r_epik_Charging_Adjusted_Penalty>  (85) 
0

>  <i_epik_Tot_Q>  (85) 
0

>  <i_epik_Tot_abs_Q>  (85) 
0

>  <s_lp_Force_Field>  (85) 
OPLS3e

>  <r_lp_Energy>  (85) 
49.0507

>  <b_lp_Chiralities_Consistent>  (85) 
1

>  <s_lp_Variant>  (85) 
32:0-1

>  <s_i_glide_gridfile>  (85) 
pfpi4k_grid

>  <i_i_glide_lignum>  (85) 
2

>  <i_i_glide_rotatable_bonds>  (85) 
1

>  <r_i_docking_score>  (85) 
-3.07107

>  <r_i_glide_ligand_efficiency>  (85) 
-0.133525

>  <r_i_glide_ligand_efficiency_sa>  (85) 
-0.379726

>  <r_i_glide_ligand_efficiency_ln>  (85) 
-0.742611

>  <r_i_glide_gscore>  (85) 
-3.07107

>  <r_i_glide_lipo>  (85) 
-0.297384

>  <r_i_glide_hbond>  (85) 
0

>  <r_i_glide_metal>  (85) 
-0

>  <r_i_glide_rewards>  (85) 
-1.27878

>  <r_i_glide_evdw>  (85) 
-24.8204

>  <r_i_glide_ecoul>  (85) 
-1.3844

>  <r_i_glide_erotb>  (85) 
0

>  <r_i_glide_esite>  (85) 
-0.0462236

>  <r_i_glide_emodel>  (85) 
-31.1175

>  <r_i_glide_energy>  (85) 
-26.2048

>  <r_i_glide_einternal>  (85) 
0.0451851

>  <r_i_glide_intrahb_reward>  (85) 
-0

>  <i_i_glide_confnum>  (85) 
1

>  <i_i_glide_posenum>  (85) 
1

>  <r_i_glide_eff_state_penalty>  (85) 
0

>  <ligand_id>  (85) 
32

>  <original_smiles>  (85) 
CC12CCC3C(C=CC4(C)C(C=O)=CCCC34C)C1CCC2=O

>  <smiles>  (85) 
[H]C(=O)C1=C([H])C([H])([H])C([H])([H])C2(C([H])([H])[H])C1(C([H])([H])[H])C([H])=C([H])C1([H])C3([H])C([H])([H])C([H])([H])C(=O)C3(C([H])([H])[H])C([H])([H])C([H])([H])C12[H]

$$$$
32:0:2
     RDKit          3D

 51 54  0  0  1  0  0  0  0  0999 V2000
    5.5998   -3.4124   -3.3729 C   0  0  0  0  0  0  0  0  0  0  0  0
    4.6185   -2.5562   -2.5910 C   0  0  2  0  0  0  0  0  0  0  0  0
    5.2777   -1.8700   -1.3744 C   0  0  0  0  0  0  0  0  0  0  0  0
    5.6697   -2.8846   -0.2752 C   0  0  0  0  0  0  0  0  0  0  0  0
    4.7168   -4.1073   -0.1765 C   0  0  2  0  0  0  0  0  0  0  0  0
    3.3160   -3.7213   -0.6957 C   0  0  2  0  0  0  0  0  0  0  0  0
    2.2726   -4.7323   -0.2919 C   0  0  0  0  0  0  0  0  0  0  0  0
    2.3119   -5.3212    0.9241 C   0  0  0  0  0  0  0  0  0  0  0  0
    3.3940   -4.9484    1.9385 C   0  0  1  0  0  0  0  0  0  0  0  0
    3.0473   -3.5587    2.5335 C   0  0  0  0  0  0  0  0  0  0  0  0
    3.4891   -5.8643    3.1870 C   0  0  0  0  0  0  0  0  0  0  0  0
    2.2871   -6.4787    3.8094 C   0  0  0  0  0  0  0  0  0  0  0  0
    1.1152   -6.1800    3.5712 O   0  0  0  0  0  0  0  0  0  0  0  0
    4.6770   -6.1046    3.7833 C   0  0  0  0  0  0  0  0  0  0  0  0
    6.0153   -5.5494    3.3121 C   0  0  0  0  0  0  0  0  0  0  0  0
    5.9091   -4.5847    2.1143 C   0  0  0  0  0  0  0  0  0  0  0  0
    4.7622   -4.9742    1.1454 C   0  0  2  0  0  0  0  0  0  0  0  0
    5.0754   -6.4231    0.6631 C   0  0  0  0  0  0  0  0  0  0  0  0
    3.4213   -3.4422   -2.2214 C   0  0  1  0  0  0  0  0  0  0  0  0
    2.1761   -2.7988   -2.7705 C   0  0  0  0  0  0  0  0  0  0  0  0
    2.6268   -1.8885   -3.9005 C   0  0  0  0  0  0  0  0  0  0  0  0
    4.0143   -1.5548   -3.5327 C   0  0  0  0  0  0  0  0  0  0  0  0
    4.6048   -0.6418   -4.0985 O   0  0  0  0  0  0  0  0  0  0  0  0
    5.9289   -4.2781   -2.8261 H   0  0  0  0  0  0  0  0  0  0  0  0
    6.4900   -2.8240   -3.5088 H   0  0  0  0  0  0  0  0  0  0  0  0
    5.1801   -3.7523   -4.3308 H   0  0  0  0  0  0  0  0  0  0  0  0
    6.1263   -1.2645   -1.7026 H   0  0  0  0  0  0  0  0  0  0  0  0
    4.5515   -1.1688   -0.9666 H   0  0  0  0  0  0  0  0  0  0  0  0
    6.6493   -3.2768   -0.5359 H   0  0  0  0  0  0  0  0  0  0  0  0
    5.7644   -2.3512    0.6760 H   0  0  0  0  0  0  0  0  0  0  0  0
    5.0658   -4.7875   -0.9616 H   0  0  0  0  0  0  0  0  0  0  0  0
    2.9849   -2.8058   -0.2027 H   0  0  0  0  0  0  0  0  0  0  0  0
    1.5105   -4.9911   -1.0101 H   0  0  0  0  0  0  0  0  0  0  0  0
    1.6014   -6.0872    1.1749 H   0  0  0  0  0  0  0  0  0  0  0  0
    2.0144   -3.5562    2.8781 H   0  0  0  0  0  0  0  0  0  0  0  0
    3.1532   -2.7314    1.8397 H   0  0  0  0  0  0  0  0  0  0  0  0
    3.6597   -3.3164    3.4022 H   0  0  0  0  0  0  0  0  0  0  0  0
    2.5178   -7.2273    4.5681 H   0  0  0  0  0  0  0  0  0  0  0  0
    4.7434   -6.7419    4.6533 H   0  0  0  0  0  0  0  0  0  0  0  0
    6.5168   -5.0670    4.1491 H   0  0  0  0  0  0  0  0  0  0  0  0
    6.6415   -6.3932    3.0325 H   0  0  0  0  0  0  0  0  0  0  0  0
    5.7200   -3.5966    2.5237 H   0  0  0  0  0  0  0  0  0  0  0  0
    6.8768   -4.5106    1.6040 H   0  0  0  0  0  0  0  0  0  0  0  0
    5.0532   -7.1769    1.4457 H   0  0  0  0  0  0  0  0  0  0  0  0
    6.0843   -6.4451    0.2563 H   0  0  0  0  0  0  0  0  0  0  0  0
    4.3942   -6.7663   -0.1162 H   0  0  0  0  0  0  0  0  0  0  0  0
    3.5166   -4.2767   -2.8740 H   0  0  0  0  0  0  0  0  0  0  0  0
    1.4510   -3.5197   -3.1403 H   0  0  0  0  0  0  0  0  0  0  0  0
    1.7768   -2.2963   -1.9134 H   0  0  0  0  0  0  0  0  0  0  0  0
    2.7070   -2.5157   -4.7857 H   0  0  0  0  0  0  0  0  0  0  0  0
    2.1354   -0.9467   -4.1362 H   0  0  0  0  0  0  0  0  0  0  0  0
  2  1  1  6
  1 24  1  0
  1 25  1  0
  1 26  1  0
  2 19  1  0
  2 22  1  0
  2  3  1  0
  3  4  1  0
  3 27  1  0
  3 28  1  0
  4  5  1  0
  4 29  1  0
  4 30  1  0
  5 17  1  0
  5  6  1  0
  5 31  1  6
  6  7  1  0
  6 19  1  0
  6 32  1  1
  7  8  2  0
  7 33  1  0
  8  9  1  0
  8 34  1  0
  9 17  1  0
  9 10  1  1
  9 11  1  0
 10 35  1  0
 10 36  1  0
 10 37  1  0
 11 12  1  0
 11 14  2  0
 12 13  2  0
 12 38  1  0
 14 15  1  0
 14 39  1  0
 15 16  1  0
 15 40  1  0
 15 41  1  0
 16 17  1  0
 16 42  1  0
 16 43  1  0
 17 18  1  6
 18 44  1  0
 18 45  1  0
 18 46  1  0
 19 20  1  0
 19 47  1  6
 20 21  1  0
 20 48  1  0
 20 49  1  0
 21 22  1  0
 21 50  1  0
 21 51  1  0
 22 23  2  0
M  END
>  <i_m_ct_stereo_status>  (86) 
1

>  <s_m_source_file>  (86) 
/var/tmp/pbs.5076255.sched01/tmpxs4nfypl/40fgi3imsd.sdf

>  <i_m_source_file_index>  (86) 
2

>  <i_lp_mmshare_version>  (86) 
48012

>  <i_f3d_flags>  (86) 
0

>  <s_epik_input>  (86) 
Tz1DMVtDSDJdW0NIMl1bQ0BASF0oW0NAQF0xMltDSDNdKVtDQEBIXTNbQ0BASF0oW0NIMl1bQ0gyXTIpW0NAXTQoW0NIM10pW0NAQF0oW0NIM10pKFtDSF09W0NIXTMpQyhbQ0hdPU8pPVtDSF1bQ0gyXVtDSDJdNA==

>  <s_epik_cmdline>  (86) 
J2VwaWtfcHl0aG9uJywgJy1waHQnLCAnMi4wJywgJy1waCcsICc3LjAnLCAnLXRuJywgJzgnLCAnLW1hJywgJzIwMCcsICctaW1hZScsICc8aW5maWxlLm1hZT4nLCAnLW9tYWUnLCAnPG91dGZpbGUubWFlPic=

>  <r_lp_tautomer_probability>  (86) 
1

>  <r_epik_Ionization_Penalty>  (86) 
5.39389e-14

>  <r_epik_Ionization_Penalty_Charging>  (86) 
0

>  <r_epik_Ionization_Penalty_Neutral>  (86) 
5.39389e-14

>  <r_epik_State_Penalty>  (86) 
-0

>  <r_epik_Charging_Adjusted_Penalty>  (86) 
0

>  <i_epik_Tot_Q>  (86) 
0

>  <i_epik_Tot_abs_Q>  (86) 
0

>  <s_lp_Force_Field>  (86) 
OPLS3e

>  <r_lp_Energy>  (86) 
49.0507

>  <b_lp_Chiralities_Consistent>  (86) 
1

>  <s_lp_Variant>  (86) 
32:0-1

>  <s_i_glide_gridfile>  (86) 
pfpi4k_grid

>  <i_i_glide_lignum>  (86) 
2

>  <i_i_glide_rotatable_bonds>  (86) 
1

>  <r_i_docking_score>  (86) 
-3.01886

>  <r_i_glide_ligand_efficiency>  (86) 
-0.131255

>  <r_i_glide_ligand_efficiency_sa>  (86) 
-0.373271

>  <r_i_glide_ligand_efficiency_ln>  (86) 
-0.729988

>  <r_i_glide_gscore>  (86) 
-3.01886

>  <r_i_glide_lipo>  (86) 
-0.688631

>  <r_i_glide_hbond>  (86) 
0

>  <r_i_glide_metal>  (86) 
-0

>  <r_i_glide_rewards>  (86) 
-1.55581

>  <r_i_glide_evdw>  (86) 
-9.88272

>  <r_i_glide_ecoul>  (86) 
-1.86327

>  <r_i_glide_erotb>  (86) 
0

>  <r_i_glide_esite>  (86) 
-0.000791798

>  <r_i_glide_emodel>  (86) 
-15.3774

>  <r_i_glide_energy>  (86) 
-11.746

>  <r_i_glide_einternal>  (86) 
3.78679e-06

>  <r_i_glide_intrahb_reward>  (86) 
-0

>  <i_i_glide_confnum>  (86) 
1

>  <i_i_glide_posenum>  (86) 
9

>  <r_i_glide_eff_state_penalty>  (86) 
0

>  <ligand_id>  (86) 
32

>  <original_smiles>  (86) 
CC12CCC3C(C=CC4(C)C(C=O)=CCCC34C)C1CCC2=O

>  <smiles>  (86) 
[H]C(=O)C1=C([H])C([H])([H])C([H])([H])C2(C([H])([H])[H])C1(C([H])([H])[H])C([H])=C([H])C1([H])C3([H])C([H])([H])C([H])([H])C(=O)C3(C([H])([H])[H])C([H])([H])C([H])([H])C12[H]

$$$$
33:0:0
     RDKit          3D

 44 48  0  0  1  0  0  0  0  0999 V2000
    5.4304   -0.6895    2.7752 C   0  0  0  0  0  0  0  0  0  0  0  0
    4.3592   -0.7353    1.6655 C   0  0  0  0  0  0  0  0  0  0  0  0
    4.9741   -1.1447    0.3483 N   0  0  2  0  0  0  0  0  0  0  0  0
    4.1139   -1.0301   -0.8632 C   0  0  0  0  0  0  0  0  0  0  0  0
    4.4908   -2.1986   -1.7809 C   0  0  1  0  0  0  0  0  0  0  0  0
    4.3870   -1.8255   -3.2723 C   0  0  0  0  0  0  0  0  0  0  0  0
    5.9273   -2.4865   -1.3331 C   0  0  0  0  0  0  0  0  0  0  0  0
    5.9150   -2.2962    0.2019 C   0  0  2  0  0  0  0  0  0  0  0  0
    5.8212   -3.6560    0.9680 C   0  0  1  0  0  0  0  0  0  0  0  0
    7.1132   -4.2056    0.8880 O   0  0  0  0  0  0  0  0  0  0  0  0
    5.1741   -4.1927    2.2297 C   0  0  1  0  0  0  0  0  0  0  0  0
    3.8025   -3.9841    2.8801 C   0  0  0  0  0  0  0  0  0  0  0  0
    2.7922   -4.7756    2.0310 C   0  0  0  0  0  0  0  0  0  0  0  0
    3.3778   -4.8162    0.6166 C   0  0  1  0  0  0  0  0  0  0  0  0
    2.9628   -3.6095   -0.1916 C   0  0  2  0  0  0  0  0  0  0  0  0
    2.1629   -3.5804   -1.4756 C   0  0  0  0  0  0  0  0  0  0  0  0
    3.6596   -3.4422   -1.5183 C   0  0  1  0  0  0  0  0  0  0  0  0
    4.8818   -4.8192    0.8521 C   0  0  1  0  0  0  0  0  0  0  0  0
    4.9744   -0.3916    3.7204 H   0  0  0  0  0  0  0  0  0  0  0  0
    6.2024    0.0355    2.5549 H   0  0  0  0  0  0  0  0  0  0  0  0
    5.9202   -1.6407    2.9350 H   0  0  0  0  0  0  0  0  0  0  0  0
    3.4548   -1.2847    1.8964 H   0  0  0  0  0  0  0  0  0  0  0  0
    4.0270    0.2880    1.5071 H   0  0  0  0  0  0  0  0  0  0  0  0
    3.0610   -0.9302   -0.6484 H   0  0  0  0  0  0  0  0  0  0  0  0
    4.4360   -0.1031   -1.3241 H   0  0  0  0  0  0  0  0  0  0  0  0
    4.7207   -2.6501   -3.9047 H   0  0  0  0  0  0  0  0  0  0  0  0
    5.0032   -0.9603   -3.5133 H   0  0  0  0  0  0  0  0  0  0  0  0
    3.3653   -1.5889   -3.5614 H   0  0  0  0  0  0  0  0  0  0  0  0
    6.2824   -3.4792   -1.6397 H   0  0  0  0  0  0  0  0  0  0  0  0
    6.6035   -1.7577   -1.7857 H   0  0  0  0  0  0  0  0  0  0  0  0
    6.8849   -1.8648    0.4845 H   0  0  0  0  0  0  0  0  0  0  0  0
    7.6064   -3.9629    1.6672 H   0  0  0  0  0  0  0  0  0  0  0  0
    5.8388   -4.7674    2.8615 H   0  0  0  0  0  0  0  0  0  0  0  0
    3.8264   -4.3692    3.9151 H   0  0  0  0  0  0  0  0  0  0  0  0
    3.5758   -2.9336    2.9279 H   0  0  0  0  0  0  0  0  0  0  0  0
    2.6954   -5.7922    2.4101 H   0  0  0  0  0  0  0  0  0  0  0  0
    1.8049   -4.3154    2.0543 H   0  0  0  0  0  0  0  0  0  0  0  0
    3.0979   -5.7273    0.0812 H   0  0  0  0  0  0  0  0  0  0  0  0
    2.7468   -2.7638    0.4374 H   0  0  0  0  0  0  0  0  0  0  0  0
    1.7063   -4.5226   -1.7732 H   0  0  0  0  0  0  0  0  0  0  0  0
    1.5992   -2.6920   -1.7508 H   0  0  0  0  0  0  0  0  0  0  0  0
    4.1499   -4.3146   -1.9449 H   0  0  0  0  0  0  0  0  0  0  0  0
    5.3326   -5.7992    0.7201 H   0  0  0  0  0  0  0  0  0  0  0  0
    5.5967   -0.3704    0.1951 H   0  0  0  0  0  0  0  0  0  0  0  0
  1  2  1  0
  1 19  1  0
  1 20  1  0
  1 21  1  0
  2  3  1  0
  2 22  1  0
  2 23  1  0
  3  8  1  0
  3  4  1  0
  3 44  1  6
  4  5  1  0
  4 24  1  0
  4 25  1  0
  5 17  1  0
  5  6  1  6
  5  7  1  0
  6 26  1  0
  6 27  1  0
  6 28  1  0
  7  8  1  0
  7 29  1  0
  7 30  1  0
  8  9  1  0
  8 31  1  1
  9 18  1  0
  9 10  1  1
  9 11  1  0
 10 32  1  0
 11 18  1  0
 11 12  1  0
 11 33  1  1
 12 13  1  0
 12 34  1  0
 12 35  1  0
 13 14  1  0
 13 36  1  0
 13 37  1  0
 14 15  1  0
 14 18  1  0
 14 38  1  6
 15 17  1  0
 15 16  1  0
 15 39  1  1
 16 17  1  0
 16 40  1  0
 16 41  1  0
 17 42  1  6
 18 43  1  1
M  CHG  1   3   1
M  END
>  <i_m_ct_stereo_status>  (87) 
1

>  <s_m_source_file>  (87) 
/var/tmp/pbs.5076255.sched01/tmpxs4nfypl/40fgi3imsd.sdf

>  <i_m_source_file_index>  (87) 
3

>  <i_lp_mmshare_version>  (87) 
48012

>  <i_f3d_flags>  (87) 
0

>  <s_epik_input>  (87) 
W0NIM11bQ0gyXU4oW0NIMl0xKVtDQEBIXShbQ0gyXTIpW0NAQF0oW09IXSkoW0NAQEhdM1tDSDJdW0NIMl00KVtDQEBIXTNbQ0BASF00W0NASF0oW0NIMl01KVtDQEBIXTVbQ0BAXTEyW0NIM10=

>  <s_epik_cmdline>  (87) 
J2VwaWtfcHl0aG9uJywgJy1waHQnLCAnMi4wJywgJy1waCcsICc3LjAnLCAnLXRuJywgJzgnLCAnLW1hJywgJzIwMCcsICctaW1hZScsICc8aW5maWxlLm1hZT4nLCAnLW9tYWUnLCAnPG91dGZpbGUubWFlPic=

>  <r_epik_Ionization_Penalty>  (87) 
0.00211815

>  <r_epik_Ionization_Penalty_Charging>  (87) 
0.00211814

>  <r_epik_Ionization_Penalty_Neutral>  (87) 
2.79037e-09

>  <r_epik_State_Penalty>  (87) 
0.00145253

>  <r_epik_Charging_Adjusted_Penalty>  (87) 
0.00357067

>  <i_epik_Tot_Q>  (87) 
1

>  <i_epik_Tot_abs_Q>  (87) 
1

>  <s_lp_Force_Field>  (87) 
OPLS3e

>  <r_lp_Energy>  (87) 
59.6985

>  <b_lp_Chiralities_Consistent>  (87) 
1

>  <s_lp_Variant>  (87) 
33:0-1

>  <s_i_glide_gridfile>  (87) 
pfpi4k_grid

>  <i_i_glide_lignum>  (87) 
3

>  <i_i_glide_rotatable_bonds>  (87) 
2

>  <r_i_docking_score>  (87) 
-3.59961

>  <r_i_glide_ligand_efficiency>  (87) 
-0.199978

>  <r_i_glide_ligand_efficiency_sa>  (87) 
-0.524091

>  <r_i_glide_ligand_efficiency_ln>  (87) 
-0.925261

>  <r_i_glide_gscore>  (87) 
-3.59961

>  <r_i_glide_lipo>  (87) 
-0.522136

>  <r_i_glide_hbond>  (87) 
0

>  <r_i_glide_metal>  (87) 
-0

>  <r_i_glide_rewards>  (87) 
-1.71557

>  <r_i_glide_evdw>  (87) 
-19.2024

>  <r_i_glide_ecoul>  (87) 
-2.67859

>  <r_i_glide_erotb>  (87) 
0

>  <r_i_glide_esite>  (87) 
0

>  <r_i_glide_emodel>  (87) 
-26.2705

>  <r_i_glide_energy>  (87) 
-21.881

>  <r_i_glide_einternal>  (87) 
0.392153

>  <r_i_glide_intrahb_reward>  (87) 
-0

>  <i_i_glide_confnum>  (87) 
2

>  <i_i_glide_posenum>  (87) 
4

>  <r_i_glide_eff_state_penalty>  (87) 
0

>  <ligand_id>  (87) 
33

>  <original_smiles>  (87) 
CCN1CC2(C)CC1C1(O)C3CCC(C4CC42)C31

>  <smiles>  (87) 
[H]OC12C3([H])C([H])([H])C([H])([H])C([H])(C4([H])C([H])([H])C4([H])C4(C([H])([H])[H])C([H])([H])C1([H])[N+]([H])(C([H])([H])C([H])([H])[H])C4([H])[H])C32[H]

$$$$
33:0:1
     RDKit          3D

 44 48  0  0  1  0  0  0  0  0999 V2000
    4.2150   -0.3024    3.2951 C   0  0  0  0  0  0  0  0  0  0  0  0
    4.4838   -1.7107    2.7357 C   0  0  0  0  0  0  0  0  0  0  0  0
    4.9443   -1.6394    1.3352 N   0  0  2  0  0  0  0  0  0  0  0  0
    3.9569   -1.2776    0.2859 C   0  0  0  0  0  0  0  0  0  0  0  0
    4.3396   -2.0867   -0.9773 C   0  0  1  0  0  0  0  0  0  0  0  0
    4.0435   -1.3215   -2.2810 C   0  0  0  0  0  0  0  0  0  0  0  0
    5.8463   -2.2850   -0.7488 C   0  0  0  0  0  0  0  0  0  0  0  0
    5.9901   -2.5362    0.7608 C   0  0  2  0  0  0  0  0  0  0  0  0
    6.1533   -4.0546    1.0859 C   0  0  1  0  0  0  0  0  0  0  0  0
    7.5051   -4.3602    0.7877 O   0  0  0  0  0  0  0  0  0  0  0  0
    5.7241   -5.0099    2.1807 C   0  0  1  0  0  0  0  0  0  0  0  0
    4.4339   -5.1618    2.9588 C   0  0  0  0  0  0  0  0  0  0  0  0
    3.4216   -5.8388    2.0245 C   0  0  0  0  0  0  0  0  0  0  0  0
    3.8411   -5.4180    0.6160 C   0  0  1  0  0  0  0  0  0  0  0  0
    3.1928   -4.1149    0.2314 C   0  0  2  0  0  0  0  0  0  0  0  0
    2.2323   -3.8384   -0.9036 C   0  0  0  0  0  0  0  0  0  0  0  0
    3.6847   -3.4686   -1.0470 C   0  0  1  0  0  0  0  0  0  0  0  0
    5.3502   -5.2759    0.7083 C   0  0  1  0  0  0  0  0  0  0  0  0
    3.8938   -0.3669    4.3361 H   0  0  0  0  0  0  0  0  0  0  0  0
    3.4185    0.1977    2.7455 H   0  0  0  0  0  0  0  0  0  0  0  0
    5.1033    0.3281    3.2629 H   0  0  0  0  0  0  0  0  0  0  0  0
    5.2335   -2.2033    3.3631 H   0  0  0  0  0  0  0  0  0  0  0  0
    3.5439   -2.2594    2.8209 H   0  0  0  0  0  0  0  0  0  0  0  0
    2.9114   -1.3890    0.5816 H   0  0  0  0  0  0  0  0  0  0  0  0
    4.1059   -0.2117    0.1000 H   0  0  0  0  0  0  0  0  0  0  0  0
    4.3859   -1.8841   -3.1529 H   0  0  0  0  0  0  0  0  0  0  0  0
    4.5280   -0.3443   -2.3060 H   0  0  0  0  0  0  0  0  0  0  0  0
    2.9716   -1.1587   -2.3984 H   0  0  0  0  0  0  0  0  0  0  0  0
    6.2719   -3.0813   -1.3677 H   0  0  0  0  0  0  0  0  0  0  0  0
    6.3760   -1.3663   -1.0024 H   0  0  0  0  0  0  0  0  0  0  0  0
    6.9233   -2.0801    1.1001 H   0  0  0  0  0  0  0  0  0  0  0  0
    7.6493   -4.2178   -0.1356 H   0  0  0  0  0  0  0  0  0  0  0  0
    6.5186   -5.6403    2.5745 H   0  0  0  0  0  0  0  0  0  0  0  0
    4.6003   -5.7522    3.8618 H   0  0  0  0  0  0  0  0  0  0  0  0
    4.0839   -4.1981    3.2881 H   0  0  0  0  0  0  0  0  0  0  0  0
    3.5121   -6.9216    2.1177 H   0  0  0  0  0  0  0  0  0  0  0  0
    2.3885   -5.5705    2.2582 H   0  0  0  0  0  0  0  0  0  0  0  0
    3.5914   -6.1806   -0.1278 H   0  0  0  0  0  0  0  0  0  0  0  0
    2.9733   -3.5040    1.1013 H   0  0  0  0  0  0  0  0  0  0  0  0
    1.8348   -4.6650   -1.4802 H   0  0  0  0  0  0  0  0  0  0  0  0
    1.5083   -3.0605   -0.7682 H   0  0  0  0  0  0  0  0  0  0  0  0
    4.2000   -4.1236   -1.7509 H   0  0  0  0  0  0  0  0  0  0  0  0
    5.8850   -6.1174    0.2694 H   0  0  0  0  0  0  0  0  0  0  0  0
    5.4838   -0.7909    1.3782 H   0  0  0  0  0  0  0  0  0  0  0  0
  1  2  1  0
  1 19  1  0
  1 20  1  0
  1 21  1  0
  2  3  1  0
  2 22  1  0
  2 23  1  0
  3  8  1  0
  3  4  1  0
  3 44  1  1
  4  5  1  0
  4 24  1  0
  4 25  1  0
  5 17  1  0
  5  6  1  6
  5  7  1  0
  6 26  1  0
  6 27  1  0
  6 28  1  0
  7  8  1  0
  7 29  1  0
  7 30  1  0
  8  9  1  0
  8 31  1  1
  9 18  1  0
  9 10  1  6
  9 11  1  0
 10 32  1  0
 11 18  1  0
 11 12  1  0
 11 33  1  1
 12 13  1  0
 12 34  1  0
 12 35  1  0
 13 14  1  0
 13 36  1  0
 13 37  1  0
 14 15  1  0
 14 18  1  0
 14 38  1  6
 15 17  1  0
 15 16  1  0
 15 39  1  1
 16 17  1  0
 16 40  1  0
 16 41  1  0
 17 42  1  6
 18 43  1  6
M  CHG  1   3   1
M  END
>  <i_m_ct_stereo_status>  (88) 
1

>  <s_m_source_file>  (88) 
/var/tmp/pbs.5076255.sched01/tmpxs4nfypl/40fgi3imsd.sdf

>  <i_m_source_file_index>  (88) 
3

>  <i_lp_mmshare_version>  (88) 
48012

>  <i_f3d_flags>  (88) 
0

>  <s_epik_input>  (88) 
W0NIM11bQ0gyXU4oW0NIMl0xKVtDQEBIXShbQ0gyXTIpW0NAQF0oW09IXSkoW0NAQEhdM1tDSDJdW0NIMl00KVtDQEBIXTNbQ0BASF00W0NASF0oW0NIMl01KVtDQEBIXTVbQ0BAXTEyW0NIM10=

>  <s_epik_cmdline>  (88) 
J2VwaWtfcHl0aG9uJywgJy1waHQnLCAnMi4wJywgJy1waCcsICc3LjAnLCAnLXRuJywgJzgnLCAnLW1hJywgJzIwMCcsICctaW1hZScsICc8aW5maWxlLm1hZT4nLCAnLW9tYWUnLCAnPG91dGZpbGUubWFlPic=

>  <r_epik_Ionization_Penalty>  (88) 
0.00211815

>  <r_epik_Ionization_Penalty_Charging>  (88) 
0.00211814

>  <r_epik_Ionization_Penalty_Neutral>  (88) 
2.79037e-09

>  <r_epik_State_Penalty>  (88) 
0.00145253

>  <r_epik_Charging_Adjusted_Penalty>  (88) 
0.00357067

>  <i_epik_Tot_Q>  (88) 
1

>  <i_epik_Tot_abs_Q>  (88) 
1

>  <s_lp_Force_Field>  (88) 
OPLS3e

>  <r_lp_Energy>  (88) 
59.6985

>  <b_lp_Chiralities_Consistent>  (88) 
1

>  <s_lp_Variant>  (88) 
33:0-1

>  <s_i_glide_gridfile>  (88) 
pfpi4k_grid

>  <i_i_glide_lignum>  (88) 
3

>  <i_i_glide_rotatable_bonds>  (88) 
2

>  <r_i_docking_score>  (88) 
-3.38782

>  <r_i_glide_ligand_efficiency>  (88) 
-0.188212

>  <r_i_glide_ligand_efficiency_sa>  (88) 
-0.493255

>  <r_i_glide_ligand_efficiency_ln>  (88) 
-0.870821

>  <r_i_glide_gscore>  (88) 
-3.38782

>  <r_i_glide_lipo>  (88) 
-0.405491

>  <r_i_glide_hbond>  (88) 
0

>  <r_i_glide_metal>  (88) 
-0

>  <r_i_glide_rewards>  (88) 
-1.71557

>  <r_i_glide_evdw>  (88) 
-20.0849

>  <r_i_glide_ecoul>  (88) 
-1.75011

>  <r_i_glide_erotb>  (88) 
0

>  <r_i_glide_esite>  (88) 
0

>  <r_i_glide_emodel>  (88) 
-25.9601

>  <r_i_glide_energy>  (88) 
-21.835

>  <r_i_glide_einternal>  (88) 
0.316254

>  <r_i_glide_intrahb_reward>  (88) 
-0

>  <i_i_glide_confnum>  (88) 
1

>  <i_i_glide_posenum>  (88) 
9

>  <r_i_glide_eff_state_penalty>  (88) 
0

>  <ligand_id>  (88) 
33

>  <original_smiles>  (88) 
CCN1CC2(C)CC1C1(O)C3CCC(C4CC42)C31

>  <smiles>  (88) 
[H]OC12C3([H])C([H])([H])C([H])([H])C([H])(C4([H])C([H])([H])C4([H])C4(C([H])([H])[H])C([H])([H])C1([H])[N+]([H])(C([H])([H])C([H])([H])[H])C4([H])[H])C32[H]

$$$$
33:1:0
     RDKit          3D

 44 48  0  0  1  0  0  0  0  0999 V2000
    3.7023   -0.9992    2.7577 C   0  0  0  0  0  0  0  0  0  0  0  0
    5.1775   -1.1988    2.3579 C   0  0  0  0  0  0  0  0  0  0  0  0
    5.3860   -1.3219    0.8624 N   0  0  2  0  0  0  0  0  0  0  0  0
    4.2074   -1.0727   -0.0626 C   0  0  0  0  0  0  0  0  0  0  0  0
    4.3445   -2.0577   -1.2905 C   0  0  1  0  0  0  0  0  0  0  0  0
    3.9350   -1.3611   -2.6013 C   0  0  0  0  0  0  0  0  0  0  0  0
    5.8236   -2.4222   -1.2195 C   0  0  0  0  0  0  0  0  0  0  0  0
    6.0118   -2.5499    0.2896 C   0  0  1  0  0  0  0  0  0  0  0  0
    6.5418   -3.8705    0.8664 C   0  0  1  0  0  0  0  0  0  0  0  0
    7.8845   -4.0564    0.4910 O   0  0  0  0  0  0  0  0  0  0  0  0
    6.1206   -4.8305    1.9717 C   0  0  1  0  0  0  0  0  0  0  0  0
    4.8514   -4.8360    2.8035 C   0  0  0  0  0  0  0  0  0  0  0  0
    3.8293   -5.6529    2.0067 C   0  0  0  0  0  0  0  0  0  0  0  0
    4.1368   -5.3070    0.5471 C   0  0  1  0  0  0  0  0  0  0  0  0
    3.3057   -4.0542    0.1504 C   0  0  2  0  0  0  0  0  0  0  0  0
    2.2336   -3.8299   -0.8758 C   0  0  0  0  0  0  0  0  0  0  0  0
    3.6300   -3.4506   -1.2058 C   0  0  1  0  0  0  0  0  0  0  0  0
    5.6983   -5.1350    0.5454 C   0  0  1  0  0  0  0  0  0  0  0  0
    3.6088   -0.8715    3.8523 H   0  0  0  0  0  0  0  0  0  0  0  0
    3.0729   -1.8432    2.4940 H   0  0  0  0  0  0  0  0  0  0  0  0
    3.2769   -0.1028    2.3130 H   0  0  0  0  0  0  0  0  0  0  0  0
    5.7365   -0.3175    2.6630 H   0  0  0  0  0  0  0  0  0  0  0  0
    5.6398   -2.0199    2.8930 H   0  0  0  0  0  0  0  0  0  0  0  0
    3.2175   -1.2170    0.3623 H   0  0  0  0  0  0  0  0  0  0  0  0
    4.2889   -0.0313   -0.3828 H   0  0  0  0  0  0  0  0  0  0  0  0
    4.1156   -1.9978   -3.4709 H   0  0  0  0  0  0  0  0  0  0  0  0
    4.4771   -0.4224   -2.7430 H   0  0  0  0  0  0  0  0  0  0  0  0
    2.8724   -1.1207   -2.5749 H   0  0  0  0  0  0  0  0  0  0  0  0
    6.1060   -3.3291   -1.7743 H   0  0  0  0  0  0  0  0  0  0  0  0
    6.4471   -1.6182   -1.6091 H   0  0  0  0  0  0  0  0  0  0  0  0
    5.1348   -2.9201    0.7396 H   0  0  0  0  0  0  0  0  0  0  0  0
    8.1971   -4.8929    0.8573 H   0  0  0  0  0  0  0  0  0  0  0  0
    6.8992   -5.4779    2.3771 H   0  0  0  0  0  0  0  0  0  0  0  0
    5.0426   -5.2686    3.7873 H   0  0  0  0  0  0  0  0  0  0  0  0
    4.4886   -3.8261    2.9554 H   0  0  0  0  0  0  0  0  0  0  0  0
    3.9872   -6.7179    2.1775 H   0  0  0  0  0  0  0  0  0  0  0  0
    2.7994   -5.4216    2.2959 H   0  0  0  0  0  0  0  0  0  0  0  0
    3.8651   -6.1269   -0.1144 H   0  0  0  0  0  0  0  0  0  0  0  0
    3.1289   -3.4151    1.0095 H   0  0  0  0  0  0  0  0  0  0  0  0
    1.7873   -4.7036   -1.3466 H   0  0  0  0  0  0  0  0  0  0  0  0
    1.5229   -3.0227   -0.6963 H   0  0  0  0  0  0  0  0  0  0  0  0
    4.0337   -4.1310   -1.9613 H   0  0  0  0  0  0  0  0  0  0  0  0
    6.2161   -5.9768    0.0810 H   0  0  0  0  0  0  0  0  0  0  0  0
    6.0631   -0.6182    0.6634 H   0  0  0  0  0  0  0  0  0  0  0  0
  1  2  1  0
  1 19  1  0
  1 20  1  0
  1 21  1  0
  2  3  1  0
  2 22  1  0
  2 23  1  0
  3  8  1  0
  3  4  1  0
  3 44  1  6
  4  5  1  0
  4 24  1  0
  4 25  1  0
  5 17  1  0
  5  6  1  6
  5  7  1  0
  6 26  1  0
  6 27  1  0
  6 28  1  0
  7  8  1  0
  7 29  1  0
  7 30  1  0
  8  9  1  0
  8 31  1  6
  9 18  1  0
  9 10  1  6
  9 11  1  0
 10 32  1  0
 11 18  1  0
 11 12  1  0
 11 33  1  1
 12 13  1  0
 12 34  1  0
 12 35  1  0
 13 14  1  0
 13 36  1  0
 13 37  1  0
 14 15  1  0
 14 18  1  0
 14 38  1  6
 15 17  1  0
 15 16  1  0
 15 39  1  1
 16 17  1  0
 16 40  1  0
 16 41  1  0
 17 42  1  6
 18 43  1  6
M  CHG  1   3   1
M  END
>  <i_m_ct_stereo_status>  (89) 
1

>  <s_m_source_file>  (89) 
/var/tmp/pbs.5076255.sched01/tmpxs4nfypl/40fgi3imsd.sdf

>  <i_m_source_file_index>  (89) 
4

>  <i_lp_mmshare_version>  (89) 
48012

>  <i_f3d_flags>  (89) 
0

>  <s_epik_input>  (89) 
W0NIM11bQ0gyXU4oW0NIMl0xKVtDQEBIXShbQ0gyXTIpW0NAQF0oW09IXSkoW0NAQEhdM1tDSDJdW0NIMl00KVtDQEBIXTNbQ0BASF00W0NASF0oW0NIMl01KVtDQEBIXTVbQ0BAXTEyW0NIM10=

>  <s_epik_cmdline>  (89) 
J2VwaWtfcHl0aG9uJywgJy1waHQnLCAnMi4wJywgJy1waCcsICc3LjAnLCAnLXRuJywgJzgnLCAnLW1hJywgJzIwMCcsICctaW1hZScsICc8aW5maWxlLm1hZT4nLCAnLW9tYWUnLCAnPG91dGZpbGUubWFlPic=

>  <r_epik_Ionization_Penalty>  (89) 
0.00211815

>  <r_epik_Ionization_Penalty_Charging>  (89) 
0.00211814

>  <r_epik_Ionization_Penalty_Neutral>  (89) 
2.79037e-09

>  <r_epik_State_Penalty>  (89) 
0.00145253

>  <r_epik_Charging_Adjusted_Penalty>  (89) 
0.00357067

>  <i_epik_Tot_Q>  (89) 
1

>  <i_epik_Tot_abs_Q>  (89) 
1

>  <s_lp_Force_Field>  (89) 
OPLS3e

>  <r_lp_Energy>  (89) 
92.7684

>  <b_lp_Chiralities_Consistent>  (89) 
1

>  <s_lp_Variant>  (89) 
33:0-2

>  <s_i_glide_gridfile>  (89) 
pfpi4k_grid

>  <i_i_glide_lignum>  (89) 
4

>  <i_i_glide_rotatable_bonds>  (89) 
2

>  <r_i_docking_score>  (89) 
-3.60165

>  <r_i_glide_ligand_efficiency>  (89) 
-0.200092

>  <r_i_glide_ligand_efficiency_sa>  (89) 
-0.524389

>  <r_i_glide_ligand_efficiency_ln>  (89) 
-0.925787

>  <r_i_glide_gscore>  (89) 
-3.60165

>  <r_i_glide_lipo>  (89) 
-0.503428

>  <r_i_glide_hbond>  (89) 
0

>  <r_i_glide_metal>  (89) 
-0

>  <r_i_glide_rewards>  (89) 
-1.71557

>  <r_i_glide_evdw>  (89) 
-20.7655

>  <r_i_glide_ecoul>  (89) 
-2.29591

>  <r_i_glide_erotb>  (89) 
0

>  <r_i_glide_esite>  (89) 
0

>  <r_i_glide_emodel>  (89) 
-22.9719

>  <r_i_glide_energy>  (89) 
-23.0614

>  <r_i_glide_einternal>  (89) 
9.24383

>  <r_i_glide_intrahb_reward>  (89) 
-0

>  <i_i_glide_confnum>  (89) 
2

>  <i_i_glide_posenum>  (89) 
38

>  <r_i_glide_eff_state_penalty>  (89) 
0

>  <ligand_id>  (89) 
33

>  <original_smiles>  (89) 
CCN1CC2(C)CC1C1(O)C3CCC(C4CC42)C31

>  <smiles>  (89) 
[H]OC12C3([H])C([H])([H])C([H])([H])C([H])(C4([H])C([H])([H])C4([H])C4(C([H])([H])[H])C([H])([H])C1([H])[N+]([H])(C([H])([H])C([H])([H])[H])C4([H])[H])C32[H]

$$$$
33:1:1
     RDKit          3D

 44 48  0  0  1  0  0  0  0  0999 V2000
    5.6978   -0.9322    2.5653 C   0  0  0  0  0  0  0  0  0  0  0  0
    4.6358   -0.7291    1.4771 C   0  0  0  0  0  0  0  0  0  0  0  0
    5.1019   -1.1620    0.1384 N   0  0  2  0  0  0  0  0  0  0  0  0
    4.1286   -0.9628   -0.9922 C   0  0  0  0  0  0  0  0  0  0  0  0
    4.2886   -2.1483   -2.0183 C   0  0  1  0  0  0  0  0  0  0  0  0
    4.2160   -1.6674   -3.4807 C   0  0  0  0  0  0  0  0  0  0  0  0
    5.6760   -2.6692   -1.6222 C   0  0  0  0  0  0  0  0  0  0  0  0
    5.5856   -2.5356   -0.1100 C   0  0  1  0  0  0  0  0  0  0  0  0
    5.7845   -3.7708    0.7696 C   0  0  1  0  0  0  0  0  0  0  0  0
    7.1230   -4.2124    0.7488 O   0  0  0  0  0  0  0  0  0  0  0  0
    5.0298   -4.4427    1.9056 C   0  0  1  0  0  0  0  0  0  0  0  0
    3.6629   -4.1632    2.4830 C   0  0  0  0  0  0  0  0  0  0  0  0
    2.6788   -4.9693    1.6349 C   0  0  0  0  0  0  0  0  0  0  0  0
    3.2760   -4.9301    0.2296 C   0  0  1  0  0  0  0  0  0  0  0  0
    2.7227   -3.6953   -0.5197 C   0  0  2  0  0  0  0  0  0  0  0  0
    1.8809   -3.5466   -1.7802 C   0  0  0  0  0  0  0  0  0  0  0  0
    3.3739   -3.3842   -1.8596 C   0  0  1  0  0  0  0  0  0  0  0  0
    4.8180   -4.9572    0.4957 C   0  0  1  0  0  0  0  0  0  0  0  0
    5.3266   -0.6087    3.5402 H   0  0  0  0  0  0  0  0  0  0  0  0
    6.6067   -0.3637    2.3578 H   0  0  0  0  0  0  0  0  0  0  0  0
    5.9991   -1.9711    2.6754 H   0  0  0  0  0  0  0  0  0  0  0  0
    3.6749   -1.1662    1.7476 H   0  0  0  0  0  0  0  0  0  0  0  0
    4.4101    0.3330    1.4205 H   0  0  0  0  0  0  0  0  0  0  0  0
    3.0972   -0.8739   -0.6426 H   0  0  0  0  0  0  0  0  0  0  0  0
    4.3761   -0.0251   -1.4715 H   0  0  0  0  0  0  0  0  0  0  0  0
    4.4621   -2.4779   -4.1706 H   0  0  0  0  0  0  0  0  0  0  0  0
    4.9141   -0.8539   -3.6714 H   0  0  0  0  0  0  0  0  0  0  0  0
    3.2171   -1.3084   -3.7403 H   0  0  0  0  0  0  0  0  0  0  0  0
    5.8912   -3.6867   -1.9619 H   0  0  0  0  0  0  0  0  0  0  0  0
    6.4636   -2.0177   -2.0021 H   0  0  0  0  0  0  0  0  0  0  0  0
    4.5975   -2.7141    0.2142 H   0  0  0  0  0  0  0  0  0  0  0  0
    7.3715   -4.4261   -0.1340 H   0  0  0  0  0  0  0  0  0  0  0  0
    5.6379   -5.0817    2.5429 H   0  0  0  0  0  0  0  0  0  0  0  0
    3.6153   -4.4236    3.5433 H   0  0  0  0  0  0  0  0  0  0  0  0
    3.4426   -3.1096    2.3993 H   0  0  0  0  0  0  0  0  0  0  0  0
    2.6399   -5.9963    1.9930 H   0  0  0  0  0  0  0  0  0  0  0  0
    1.6702   -4.5609    1.6836 H   0  0  0  0  0  0  0  0  0  0  0  0
    2.9927   -5.8338   -0.3235 H   0  0  0  0  0  0  0  0  0  0  0  0
    2.5080   -2.8728    0.1584 H   0  0  0  0  0  0  0  0  0  0  0  0
    1.4163   -4.4611   -2.1475 H   0  0  0  0  0  0  0  0  0  0  0  0
    1.3150   -2.6566   -1.9594 H   0  0  0  0  0  0  0  0  0  0  0  0
    3.8152   -4.2238   -2.3901 H   0  0  0  0  0  0  0  0  0  0  0  0
    5.2680   -5.9261    0.3126 H   0  0  0  0  0  0  0  0  0  0  0  0
    5.8859   -0.5552   -0.0621 H   0  0  0  0  0  0  0  0  0  0  0  0
  1  2  1  0
  1 19  1  0
  1 20  1  0
  1 21  1  0
  2  3  1  0
  2 22  1  0
  2 23  1  0
  3  8  1  0
  3  4  1  0
  3 44  1  6
  4  5  1  0
  4 24  1  0
  4 25  1  0
  5 17  1  0
  5  6  1  6
  5  7  1  0
  6 26  1  0
  6 27  1  0
  6 28  1  0
  7  8  1  0
  7 29  1  0
  7 30  1  0
  8  9  1  0
  8 31  1  1
  9 18  1  0
  9 10  1  1
  9 11  1  0
 10 32  1  0
 11 18  1  0
 11 12  1  0
 11 33  1  1
 12 13  1  0
 12 34  1  0
 12 35  1  0
 13 14  1  0
 13 36  1  0
 13 37  1  0
 14 15  1  0
 14 18  1  0
 14 38  1  6
 15 17  1  0
 15 16  1  0
 15 39  1  1
 16 17  1  0
 16 40  1  0
 16 41  1  0
 17 42  1  6
 18 43  1  1
M  CHG  1   3   1
M  END
>  <i_m_ct_stereo_status>  (90) 
1

>  <s_m_source_file>  (90) 
/var/tmp/pbs.5076255.sched01/tmpxs4nfypl/40fgi3imsd.sdf

>  <i_m_source_file_index>  (90) 
4

>  <i_lp_mmshare_version>  (90) 
48012

>  <i_f3d_flags>  (90) 
0

>  <s_epik_input>  (90) 
W0NIM11bQ0gyXU4oW0NIMl0xKVtDQEBIXShbQ0gyXTIpW0NAQF0oW09IXSkoW0NAQEhdM1tDSDJdW0NIMl00KVtDQEBIXTNbQ0BASF00W0NASF0oW0NIMl01KVtDQEBIXTVbQ0BAXTEyW0NIM10=

>  <s_epik_cmdline>  (90) 
J2VwaWtfcHl0aG9uJywgJy1waHQnLCAnMi4wJywgJy1waCcsICc3LjAnLCAnLXRuJywgJzgnLCAnLW1hJywgJzIwMCcsICctaW1hZScsICc8aW5maWxlLm1hZT4nLCAnLW9tYWUnLCAnPG91dGZpbGUubWFlPic=

>  <r_epik_Ionization_Penalty>  (90) 
0.00211815

>  <r_epik_Ionization_Penalty_Charging>  (90) 
0.00211814

>  <r_epik_Ionization_Penalty_Neutral>  (90) 
2.79037e-09

>  <r_epik_State_Penalty>  (90) 
0.00145253

>  <r_epik_Charging_Adjusted_Penalty>  (90) 
0.00357067

>  <i_epik_Tot_Q>  (90) 
1

>  <i_epik_Tot_abs_Q>  (90) 
1

>  <s_lp_Force_Field>  (90) 
OPLS3e

>  <r_lp_Energy>  (90) 
92.7684

>  <b_lp_Chiralities_Consistent>  (90) 
1

>  <s_lp_Variant>  (90) 
33:0-2

>  <s_i_glide_gridfile>  (90) 
pfpi4k_grid

>  <i_i_glide_lignum>  (90) 
4

>  <i_i_glide_rotatable_bonds>  (90) 
2

>  <r_i_docking_score>  (90) 
-3.5512

>  <r_i_glide_ligand_efficiency>  (90) 
-0.197289

>  <r_i_glide_ligand_efficiency_sa>  (90) 
-0.517043

>  <r_i_glide_ligand_efficiency_ln>  (90) 
-0.912817

>  <r_i_glide_gscore>  (90) 
-3.5512

>  <r_i_glide_lipo>  (90) 
-0.584276

>  <r_i_glide_hbond>  (90) 
0

>  <r_i_glide_metal>  (90) 
-0

>  <r_i_glide_rewards>  (90) 
-1.71557

>  <r_i_glide_evdw>  (90) 
-17.7064

>  <r_i_glide_ecoul>  (90) 
-2.44026

>  <r_i_glide_erotb>  (90) 
0

>  <r_i_glide_esite>  (90) 
0

>  <r_i_glide_emodel>  (90) 
-24.652

>  <r_i_glide_energy>  (90) 
-20.1466

>  <r_i_glide_einternal>  (90) 
0.25261

>  <r_i_glide_intrahb_reward>  (90) 
-0

>  <i_i_glide_confnum>  (90) 
2

>  <i_i_glide_posenum>  (90) 
3

>  <r_i_glide_eff_state_penalty>  (90) 
0

>  <ligand_id>  (90) 
33

>  <original_smiles>  (90) 
CCN1CC2(C)CC1C1(O)C3CCC(C4CC42)C31

>  <smiles>  (90) 
[H]OC12C3([H])C([H])([H])C([H])([H])C([H])(C4([H])C([H])([H])C4([H])C4(C([H])([H])[H])C([H])([H])C1([H])[N+]([H])(C([H])([H])C([H])([H])[H])C4([H])[H])C32[H]

$$$$
36:0:0
     RDKit          3D

 43 48  0  0  1  0  0  0  0  0999 V2000
    2.3166   -3.5702   -1.1626 O   0  0  0  0  0  0  0  0  0  0  0  0
    2.8730   -4.2134   -0.2624 C   0  0  0  0  0  0  0  0  0  0  0  0
    2.2300   -5.4476    0.4629 C   0  0  0  0  0  0  0  0  0  0  0  0
    1.0782   -5.8668    0.2115 O   0  0  0  0  0  0  0  0  0  0  0  0
    3.1771   -6.0070    1.5357 C   0  0  2  0  0  0  0  0  0  0  0  0
    4.4553   -6.3716    0.7756 C   0  0  0  0  0  0  0  0  0  0  0  0
    4.8791   -7.5579    0.8764 N   0  0  0  0  0  0  0  0  0  0  0  0
    3.9443   -8.2291    1.6736 C   0  0  0  0  0  0  0  0  0  0  0  0
    3.9637   -9.5650    2.0565 C   0  0  0  0  0  0  0  0  0  0  0  0
    2.8830  -10.0973    2.7944 C   0  0  0  0  0  0  0  0  0  0  0  0
    1.7858   -9.2532    3.1563 C   0  0  0  0  0  0  0  0  0  0  0  0
    1.7845   -7.8909    2.7946 C   0  0  0  0  0  0  0  0  0  0  0  0
    2.8735   -7.3997    2.0615 C   0  0  0  0  0  0  0  0  0  0  0  0
    5.0267   -5.1641    0.0080 C   0  0  0  0  0  0  0  0  0  0  0  0
    4.1233   -3.9946    0.2490 N   0  0  0  0  0  0  0  0  0  0  0  0
    4.2050   -3.6216    1.7085 C   0  0  1  0  0  0  0  0  0  0  0  0
    3.7836   -2.1719    2.1113 C   0  0  0  0  0  0  0  0  0  0  0  0
    4.2874   -1.5676    3.3045 C   0  0  0  0  0  0  0  0  0  0  0  0
    3.8164   -0.3079    3.7266 C   0  0  0  0  0  0  0  0  0  0  0  0
    2.9839    0.4794    2.8982 C   0  0  0  0  0  0  0  0  0  0  0  0
    2.5616    2.1025    3.3722 Cl  0  0  0  0  0  0  0  0  0  0  0  0
    2.5721   -0.0569    1.6603 C   0  0  0  0  0  0  0  0  0  0  0  0
    2.9381   -1.3765    1.2750 C   0  0  0  0  0  0  0  0  0  0  0  0
    3.5630   -4.8388    2.5475 C   0  0  0  0  0  0  0  0  0  0  0  0
    2.0549   -4.3093    3.4254 S   0  0  0  0  0  0  0  0  0  0  0  0
    2.7834   -4.2924    5.1094 C   0  0  0  0  0  0  0  0  0  0  0  0
    4.3373   -4.4203    5.0931 C   0  0  0  0  0  0  0  0  0  0  0  0
    4.7928   -5.5086    3.7232 S   0  0  0  0  0  0  0  0  0  0  0  0
    4.7791  -10.2288    1.7572 H   0  0  0  0  0  0  0  0  0  0  0  0
    2.8663  -11.1347    3.0690 H   0  0  0  0  0  0  0  0  0  0  0  0
    0.9598   -9.6803    3.6972 H   0  0  0  0  0  0  0  0  0  0  0  0
    0.9477   -7.2537    3.0622 H   0  0  0  0  0  0  0  0  0  0  0  0
    6.0469   -4.9589    0.3340 H   0  0  0  0  0  0  0  0  0  0  0  0
    5.0692   -5.4068   -1.0537 H   0  0  0  0  0  0  0  0  0  0  0  0
    5.2750   -3.6095    1.9290 H   0  0  0  0  0  0  0  0  0  0  0  0
    5.0530   -1.9546    3.8889 H   0  0  0  0  0  0  0  0  0  0  0  0
    4.1633    0.0764    4.6652 H   0  0  0  0  0  0  0  0  0  0  0  0
    1.9553    0.5359    0.9895 H   0  0  0  0  0  0  0  0  0  0  0  0
    2.5788   -1.7035    0.3109 H   0  0  0  0  0  0  0  0  0  0  0  0
    2.4790   -3.3773    5.6365 H   0  0  0  0  0  0  0  0  0  0  0  0
    2.3573   -5.1625    5.6225 H   0  0  0  0  0  0  0  0  0  0  0  0
    4.8184   -3.5094    4.9220 H   0  0  0  0  0  0  0  0  0  0  0  0
    4.7425   -4.7809    6.0508 H   0  0  0  0  0  0  0  0  0  0  0  0
  1  2  2  0
  2 15  1  0
  2  3  1  0
  3  4  2  0
  3  5  1  0
  5 13  1  1
  5 24  1  0
  5  6  1  0
  6  7  2  0
  6 14  1  0
  7  8  1  0
  8 13  2  0
  8  9  1  0
  9 10  2  0
  9 29  1  0
 10 11  1  0
 10 30  1  0
 11 12  2  0
 11 31  1  0
 12 13  1  0
 12 32  1  0
 14 15  1  0
 14 33  1  0
 14 34  1  0
 15 16  1  0
 16 17  1  0
 16 24  1  0
 16 35  1  1
 17 23  1  0
 17 18  2  0
 18 19  1  0
 18 36  1  0
 19 20  2  0
 19 37  1  0
 20 21  1  0
 20 22  1  0
 22 23  2  0
 22 38  1  0
 23 39  1  0
 24 28  1  0
 24 25  1  0
 25 26  1  0
 26 27  1  0
 26 40  1  0
 26 41  1  0
 27 28  1  0
 27 42  1  0
 27 43  1  0
M  END
>  <i_m_ct_stereo_status>  (91) 
1

>  <s_m_source_file>  (91) 
/var/tmp/pbs.5076255.sched01/tmpxs4nfypl/40fgi3imsd.sdf

>  <i_m_source_file_index>  (91) 
7

>  <i_lp_mmshare_version>  (91) 
48012

>  <i_f3d_flags>  (91) 
0

>  <s_epik_input>  (91) 
W2NIXTFbY0hdYyhDbClbY0hdW2NIXWMxW0NAQEhdKEMyKFtDQEBdMzQ1KVNbQ0gyXVtDSDJdUzIpTihDKD1PKUMzPU8pW0NIMl1DND1OYzZjNVtjSF1bY0hdW2NIXVtjSF02

>  <s_epik_cmdline>  (91) 
J2VwaWtfcHl0aG9uJywgJy1waHQnLCAnMi4wJywgJy1waCcsICc3LjAnLCAnLXRuJywgJzgnLCAnLW1hJywgJzIwMCcsICctaW1hZScsICc8aW5maWxlLm1hZT4nLCAnLW9tYWUnLCAnPG91dGZpbGUubWFlPic=

>  <r_lp_tautomer_probability>  (91) 
1

>  <r_epik_Ionization_Penalty>  (91) 
0.000138925

>  <r_epik_Ionization_Penalty_Charging>  (91) 
0

>  <r_epik_Ionization_Penalty_Neutral>  (91) 
0.000138925

>  <r_epik_State_Penalty>  (91) 
-0

>  <r_epik_Charging_Adjusted_Penalty>  (91) 
0

>  <i_epik_Tot_Q>  (91) 
0

>  <i_epik_Tot_abs_Q>  (91) 
0

>  <s_epik_Chemistry_Notes>  (91) 
This compound has an imine and may undergo hydrolysis.

>  <s_lp_Force_Field>  (91) 
OPLS3e

>  <r_lp_Energy>  (91) 
82.1255

>  <b_lp_Chiralities_Consistent>  (91) 
1

>  <s_lp_Variant>  (91) 
36:0-1

>  <s_i_glide_gridfile>  (91) 
pfpi4k_grid

>  <i_i_glide_lignum>  (91) 
7

>  <i_i_glide_rotatable_bonds>  (91) 
1

>  <r_i_docking_score>  (91) 
-3.04367

>  <r_i_glide_ligand_efficiency>  (91) 
-0.108703

>  <r_i_glide_ligand_efficiency_sa>  (91) 
-0.330085

>  <r_i_glide_ligand_efficiency_ln>  (91) 
-0.702569

>  <r_i_glide_gscore>  (91) 
-3.04367

>  <r_i_glide_lipo>  (91) 
-0.12506

>  <r_i_glide_hbond>  (91) 
-0.274364

>  <r_i_glide_metal>  (91) 
-0

>  <r_i_glide_rewards>  (91) 
-0.686033

>  <r_i_glide_evdw>  (91) 
-27.9458

>  <r_i_glide_ecoul>  (91) 
-3.81688

>  <r_i_glide_erotb>  (91) 
0.108902

>  <r_i_glide_esite>  (91) 
-0.0972908

>  <r_i_glide_emodel>  (91) 
-36.0622

>  <r_i_glide_energy>  (91) 
-31.7627

>  <r_i_glide_einternal>  (91) 
0.58627

>  <r_i_glide_intrahb_reward>  (91) 
-0

>  <i_i_glide_confnum>  (91) 
2

>  <i_i_glide_posenum>  (91) 
2

>  <r_i_glide_eff_state_penalty>  (91) 
0

>  <ligand_id>  (91) 
36

>  <original_smiles>  (91) 
O=C1C(=O)C23C(=Nc4ccccc42)CN1C(c1ccc(Cl)cc1)C31SCCS1

>  <smiles>  (91) 
[H]c1c([H])c([H])c2c(c1[H])N=C1C([H])([H])N3C(=O)C(=O)C12C1(SC([H])([H])C([H])([H])S1)C3([H])c1c([H])c([H])c(Cl)c([H])c1[H]

$$$$
36:0:1
     RDKit          3D

 43 48  0  0  1  0  0  0  0  0999 V2000
    0.7497   -3.7539    4.7246 O   0  0  0  0  0  0  0  0  0  0  0  0
    0.9321   -2.5695    5.0708 C   0  0  0  0  0  0  0  0  0  0  0  0
   -0.2203   -1.5550    5.3866 C   0  0  0  0  0  0  0  0  0  0  0  0
   -1.4406   -1.8414    5.3264 O   0  0  0  0  0  0  0  0  0  0  0  0
    0.3461   -0.1844    5.7829 C   0  0  2  0  0  0  0  0  0  0  0  0
    1.2146   -0.4637    7.0152 C   0  0  0  0  0  0  0  0  0  0  0  0
    0.9635    0.1826    8.0757 N   0  0  0  0  0  0  0  0  0  0  0  0
   -0.1497    0.9769    7.7773 C   0  0  0  0  0  0  0  0  0  0  0  0
   -0.8056    1.8595    8.6446 C   0  0  0  0  0  0  0  0  0  0  0  0
   -1.9721    2.5208    8.1978 C   0  0  0  0  0  0  0  0  0  0  0  0
   -2.4570    2.2940    6.8733 C   0  0  0  0  0  0  0  0  0  0  0  0
   -1.7729    1.4223    5.9943 C   0  0  0  0  0  0  0  0  0  0  0  0
   -0.6124    0.7890    6.4748 C   0  0  0  0  0  0  0  0  0  0  0  0
    2.2953   -1.5252    6.7161 C   0  0  0  0  0  0  0  0  0  0  0  0
    2.1314   -1.9654    5.2889 N   0  0  0  0  0  0  0  0  0  0  0  0
    2.4590   -0.7976    4.4028 C   0  0  1  0  0  0  0  0  0  0  0  0
    2.9009   -1.0889    2.9453 C   0  0  0  0  0  0  0  0  0  0  0  0
    2.5870   -2.3054    2.2591 C   0  0  0  0  0  0  0  0  0  0  0  0
    3.0405   -2.5106    0.9193 C   0  0  0  0  0  0  0  0  0  0  0  0
    3.7505   -1.4877    0.2306 C   0  0  0  0  0  0  0  0  0  0  0  0
    4.3347   -1.7335   -1.3936 Cl  0  0  0  0  0  0  0  0  0  0  0  0
    4.0571   -0.2961    0.9317 C   0  0  0  0  0  0  0  0  0  0  0  0
    3.7399   -0.1686    2.2750 C   0  0  0  0  0  0  0  0  0  0  0  0
    1.3222    0.3248    4.6366 C   0  0  0  0  0  0  0  0  0  0  0  0
    0.3439    0.5948    3.1259 S   0  0  0  0  0  0  0  0  0  0  0  0
    1.0326    2.2477    2.7181 C   0  0  0  0  0  0  0  0  0  0  0  0
    2.2931    2.5921    3.5466 C   0  0  0  0  0  0  0  0  0  0  0  0
    2.0885    1.8874    5.1906 S   0  0  0  0  0  0  0  0  0  0  0  0
   -0.4496    2.0282    9.6585 H   0  0  0  0  0  0  0  0  0  0  0  0
   -2.5042    3.1877    8.8473 H   0  0  0  0  0  0  0  0  0  0  0  0
   -3.3560    2.7875    6.5538 H   0  0  0  0  0  0  0  0  0  0  0  0
   -2.1424    1.2440    4.9956 H   0  0  0  0  0  0  0  0  0  0  0  0
    3.2865   -1.1081    6.9034 H   0  0  0  0  0  0  0  0  0  0  0  0
    2.1708   -2.3644    7.4021 H   0  0  0  0  0  0  0  0  0  0  0  0
    3.3772   -0.3866    4.8206 H   0  0  0  0  0  0  0  0  0  0  0  0
    2.0549   -3.1222    2.7281 H   0  0  0  0  0  0  0  0  0  0  0  0
    2.8532   -3.4501    0.4205 H   0  0  0  0  0  0  0  0  0  0  0  0
    4.6231    0.4761    0.4393 H   0  0  0  0  0  0  0  0  0  0  0  0
    4.1882    0.6477    2.7956 H   0  0  0  0  0  0  0  0  0  0  0  0
    1.2606    2.2932    1.6443 H   0  0  0  0  0  0  0  0  0  0  0  0
    0.2380    2.9748    2.9392 H   0  0  0  0  0  0  0  0  0  0  0  0
    3.1564    2.1695    3.0878 H   0  0  0  0  0  0  0  0  0  0  0  0
    2.4950    3.6688    3.5965 H   0  0  0  0  0  0  0  0  0  0  0  0
  1  2  2  0
  2 15  1  0
  2  3  1  0
  3  4  2  0
  3  5  1  0
  5 13  1  1
  5 24  1  0
  5  6  1  0
  6  7  2  0
  6 14  1  0
  7  8  1  0
  8 13  2  0
  8  9  1  0
  9 10  2  0
  9 29  1  0
 10 11  1  0
 10 30  1  0
 11 12  2  0
 11 31  1  0
 12 13  1  0
 12 32  1  0
 14 15  1  0
 14 33  1  0
 14 34  1  0
 15 16  1  0
 16 17  1  0
 16 24  1  0
 16 35  1  1
 17 23  1  0
 17 18  2  0
 18 19  1  0
 18 36  1  0
 19 20  2  0
 19 37  1  0
 20 21  1  0
 20 22  1  0
 22 23  2  0
 22 38  1  0
 23 39  1  0
 24 28  1  0
 24 25  1  0
 25 26  1  0
 26 27  1  0
 26 40  1  0
 26 41  1  0
 27 28  1  0
 27 42  1  0
 27 43  1  0
M  END
>  <i_m_ct_stereo_status>  (92) 
1

>  <s_m_source_file>  (92) 
/var/tmp/pbs.5076255.sched01/tmpxs4nfypl/40fgi3imsd.sdf

>  <i_m_source_file_index>  (92) 
7

>  <i_lp_mmshare_version>  (92) 
48012

>  <i_f3d_flags>  (92) 
0

>  <s_epik_input>  (92) 
W2NIXTFbY0hdYyhDbClbY0hdW2NIXWMxW0NAQEhdKEMyKFtDQEBdMzQ1KVNbQ0gyXVtDSDJdUzIpTihDKD1PKUMzPU8pW0NIMl1DND1OYzZjNVtjSF1bY0hdW2NIXVtjSF02

>  <s_epik_cmdline>  (92) 
J2VwaWtfcHl0aG9uJywgJy1waHQnLCAnMi4wJywgJy1waCcsICc3LjAnLCAnLXRuJywgJzgnLCAnLW1hJywgJzIwMCcsICctaW1hZScsICc8aW5maWxlLm1hZT4nLCAnLW9tYWUnLCAnPG91dGZpbGUubWFlPic=

>  <r_lp_tautomer_probability>  (92) 
1

>  <r_epik_Ionization_Penalty>  (92) 
0.000138925

>  <r_epik_Ionization_Penalty_Charging>  (92) 
0

>  <r_epik_Ionization_Penalty_Neutral>  (92) 
0.000138925

>  <r_epik_State_Penalty>  (92) 
-0

>  <r_epik_Charging_Adjusted_Penalty>  (92) 
0

>  <i_epik_Tot_Q>  (92) 
0

>  <i_epik_Tot_abs_Q>  (92) 
0

>  <s_epik_Chemistry_Notes>  (92) 
This compound has an imine and may undergo hydrolysis.

>  <s_lp_Force_Field>  (92) 
OPLS3e

>  <r_lp_Energy>  (92) 
82.1255

>  <b_lp_Chiralities_Consistent>  (92) 
1

>  <s_lp_Variant>  (92) 
36:0-1

>  <s_i_glide_gridfile>  (92) 
pfpi4k_grid

>  <i_i_glide_lignum>  (92) 
7

>  <i_i_glide_rotatable_bonds>  (92) 
1

>  <r_i_docking_score>  (92) 
-2.41714

>  <r_i_glide_ligand_efficiency>  (92) 
-0.0863264

>  <r_i_glide_ligand_efficiency_sa>  (92) 
-0.262138

>  <r_i_glide_ligand_efficiency_ln>  (92) 
-0.557947

>  <r_i_glide_gscore>  (92) 
-2.41714

>  <r_i_glide_lipo>  (92) 
-0.180827

>  <r_i_glide_hbond>  (92) 
0

>  <r_i_glide_metal>  (92) 
-0

>  <r_i_glide_rewards>  (92) 
-0.500367

>  <r_i_glide_evdw>  (92) 
-28.8102

>  <r_i_glide_ecoul>  (92) 
-2.54543

>  <r_i_glide_erotb>  (92) 
0.108902

>  <r_i_glide_esite>  (92) 
-0.0225225

>  <r_i_glide_emodel>  (92) 
-35.1337

>  <r_i_glide_energy>  (92) 
-31.3556

>  <r_i_glide_einternal>  (92) 
0.0242015

>  <r_i_glide_intrahb_reward>  (92) 
-0

>  <i_i_glide_confnum>  (92) 
1

>  <i_i_glide_posenum>  (92) 
22

>  <r_i_glide_eff_state_penalty>  (92) 
0

>  <ligand_id>  (92) 
36

>  <original_smiles>  (92) 
O=C1C(=O)C23C(=Nc4ccccc42)CN1C(c1ccc(Cl)cc1)C31SCCS1

>  <smiles>  (92) 
[H]c1c([H])c([H])c2c(c1[H])N=C1C([H])([H])N3C(=O)C(=O)C12C1(SC([H])([H])C([H])([H])S1)C3([H])c1c([H])c([H])c(Cl)c([H])c1[H]

$$$$
36:0:2
     RDKit          3D

 43 48  0  0  1  0  0  0  0  0999 V2000
    0.7043   -4.6198    6.0371 O   0  0  0  0  0  0  0  0  0  0  0  0
    1.7405   -4.4853    5.3619 C   0  0  0  0  0  0  0  0  0  0  0  0
    1.8368   -3.5407    4.1215 C   0  0  0  0  0  0  0  0  0  0  0  0
    0.9079   -2.8654    3.6815 O   0  0  0  0  0  0  0  0  0  0  0  0
    3.2641   -3.5869    3.5200 C   0  0  2  0  0  0  0  0  0  0  0  0
    4.1839   -3.1628    4.6661 C   0  0  0  0  0  0  0  0  0  0  0  0
    4.9668   -2.1784    4.4657 N   0  0  0  0  0  0  0  0  0  0  0  0
    4.6694   -1.7387    3.1723 C   0  0  0  0  0  0  0  0  0  0  0  0
    5.2670   -0.6566    2.5005 C   0  0  0  0  0  0  0  0  0  0  0  0
    4.7790   -0.3099    1.2172 C   0  0  0  0  0  0  0  0  0  0  0  0
    3.7212   -1.0421    0.6250 C   0  0  0  0  0  0  0  0  0  0  0  0
    3.1441   -2.1492    1.2904 C   0  0  0  0  0  0  0  0  0  0  0  0
    3.6552   -2.4771    2.5657 C   0  0  0  0  0  0  0  0  0  0  0  0
    4.0033   -4.0544    5.9087 C   0  0  0  0  0  0  0  0  0  0  0  0
    2.9442   -5.0690    5.5886 N   0  0  0  0  0  0  0  0  0  0  0  0
    3.4886   -5.9721    4.5103 C   0  0  1  0  0  0  0  0  0  0  0  0
    2.8153   -7.3928    4.3761 C   0  0  0  0  0  0  0  0  0  0  0  0
    3.5149   -8.4867    3.7875 C   0  0  0  0  0  0  0  0  0  0  0  0
    2.9045   -9.7039    3.5389 C   0  0  0  0  0  0  0  0  0  0  0  0
    1.6337   -9.9878    4.0388 C   0  0  0  0  0  0  0  0  0  0  0  0
    0.9570  -11.5703    3.8927 Cl  0  0  0  0  0  0  0  0  0  0  0  0
    0.9267   -8.9636    4.7546 C   0  0  0  0  0  0  0  0  0  0  0  0
    1.5253   -7.6654    4.8750 C   0  0  0  0  0  0  0  0  0  0  0  0
    3.6401   -5.0937    3.1718 C   0  0  0  0  0  0  0  0  0  0  0  0
    2.5268   -5.6872    1.8553 S   0  0  0  0  0  0  0  0  0  0  0  0
    3.8181   -6.4504    0.8080 C   0  0  0  0  0  0  0  0  0  0  0  0
    5.1943   -6.5493    1.5138 C   0  0  0  0  0  0  0  0  0  0  0  0
    5.3825   -5.1195    2.5862 S   0  0  0  0  0  0  0  0  0  0  0  0
    6.0614   -0.0808    2.9595 H   0  0  0  0  0  0  0  0  0  0  0  0
    5.1995    0.5251    0.6852 H   0  0  0  0  0  0  0  0  0  0  0  0
    3.3364   -0.7370   -0.3393 H   0  0  0  0  0  0  0  0  0  0  0  0
    2.3288   -2.6943    0.8388 H   0  0  0  0  0  0  0  0  0  0  0  0
    4.9528   -4.5192    6.1768 H   0  0  0  0  0  0  0  0  0  0  0  0
    3.7061   -3.4315    6.7545 H   0  0  0  0  0  0  0  0  0  0  0  0
    4.4988   -6.2408    4.8429 H   0  0  0  0  0  0  0  0  0  0  0  0
    4.5770   -8.4666    3.5377 H   0  0  0  0  0  0  0  0  0  0  0  0
    3.4598  -10.4810    3.0075 H   0  0  0  0  0  0  0  0  0  0  0  0
   -0.0187   -9.1755    5.1814 H   0  0  0  0  0  0  0  0  0  0  0  0
    0.9246   -6.9509    5.4348 H   0  0  0  0  0  0  0  0  0  0  0  0
    3.4807   -7.4414    0.4793 H   0  0  0  0  0  0  0  0  0  0  0  0
    3.9070   -5.8002   -0.0634 H   0  0  0  0  0  0  0  0  0  0  0  0
    5.2727   -7.4098    2.1459 H   0  0  0  0  0  0  0  0  0  0  0  0
    6.0332   -6.6513    0.8060 H   0  0  0  0  0  0  0  0  0  0  0  0
  1  2  2  0
  2 15  1  0
  2  3  1  0
  3  4  2  0
  3  5  1  0
  5 13  1  6
  5 24  1  0
  5  6  1  0
  6  7  2  0
  6 14  1  0
  7  8  1  0
  8 13  2  0
  8  9  1  0
  9 10  2  0
  9 29  1  0
 10 11  1  0
 10 30  1  0
 11 12  2  0
 11 31  1  0
 12 13  1  0
 12 32  1  0
 14 15  1  0
 14 33  1  0
 14 34  1  0
 15 16  1  0
 16 17  1  0
 16 24  1  0
 16 35  1  1
 17 23  1  0
 17 18  2  0
 18 19  1  0
 18 36  1  0
 19 20  2  0
 19 37  1  0
 20 21  1  0
 20 22  1  0
 22 23  2  0
 22 38  1  0
 23 39  1  0
 24 28  1  0
 24 25  1  0
 25 26  1  0
 26 27  1  0
 26 40  1  0
 26 41  1  0
 27 28  1  0
 27 42  1  0
 27 43  1  0
M  END
>  <i_m_ct_stereo_status>  (93) 
1

>  <s_m_source_file>  (93) 
/var/tmp/pbs.5076255.sched01/tmpxs4nfypl/40fgi3imsd.sdf

>  <i_m_source_file_index>  (93) 
7

>  <i_lp_mmshare_version>  (93) 
48012

>  <i_f3d_flags>  (93) 
0

>  <s_epik_input>  (93) 
W2NIXTFbY0hdYyhDbClbY0hdW2NIXWMxW0NAQEhdKEMyKFtDQEBdMzQ1KVNbQ0gyXVtDSDJdUzIpTihDKD1PKUMzPU8pW0NIMl1DND1OYzZjNVtjSF1bY0hdW2NIXVtjSF02

>  <s_epik_cmdline>  (93) 
J2VwaWtfcHl0aG9uJywgJy1waHQnLCAnMi4wJywgJy1waCcsICc3LjAnLCAnLXRuJywgJzgnLCAnLW1hJywgJzIwMCcsICctaW1hZScsICc8aW5maWxlLm1hZT4nLCAnLW9tYWUnLCAnPG91dGZpbGUubWFlPic=

>  <r_lp_tautomer_probability>  (93) 
1

>  <r_epik_Ionization_Penalty>  (93) 
0.000138925

>  <r_epik_Ionization_Penalty_Charging>  (93) 
0

>  <r_epik_Ionization_Penalty_Neutral>  (93) 
0.000138925

>  <r_epik_State_Penalty>  (93) 
-0

>  <r_epik_Charging_Adjusted_Penalty>  (93) 
0

>  <i_epik_Tot_Q>  (93) 
0

>  <i_epik_Tot_abs_Q>  (93) 
0

>  <s_epik_Chemistry_Notes>  (93) 
This compound has an imine and may undergo hydrolysis.

>  <s_lp_Force_Field>  (93) 
OPLS3e

>  <r_lp_Energy>  (93) 
82.1255

>  <b_lp_Chiralities_Consistent>  (93) 
1

>  <s_lp_Variant>  (93) 
36:0-1

>  <s_i_glide_gridfile>  (93) 
pfpi4k_grid

>  <i_i_glide_lignum>  (93) 
7

>  <i_i_glide_rotatable_bonds>  (93) 
1

>  <r_i_docking_score>  (93) 
-2.14894

>  <r_i_glide_ligand_efficiency>  (93) 
-0.0767478

>  <r_i_glide_ligand_efficiency_sa>  (93) 
-0.233052

>  <r_i_glide_ligand_efficiency_ln>  (93) 
-0.496038

>  <r_i_glide_gscore>  (93) 
-2.14894

>  <r_i_glide_lipo>  (93) 
-0.57598

>  <r_i_glide_hbond>  (93) 
0

>  <r_i_glide_metal>  (93) 
-0

>  <r_i_glide_rewards>  (93) 
-0.51201

>  <r_i_glide_evdw>  (93) 
-25.4265

>  <r_i_glide_ecoul>  (93) 
0.6765

>  <r_i_glide_erotb>  (93) 
0.108902

>  <r_i_glide_esite>  (93) 
0

>  <r_i_glide_emodel>  (93) 
-27.658

>  <r_i_glide_energy>  (93) 
-24.75

>  <r_i_glide_einternal>  (93) 
0.593102

>  <r_i_glide_intrahb_reward>  (93) 
-0

>  <i_i_glide_confnum>  (93) 
2

>  <i_i_glide_posenum>  (93) 
3

>  <r_i_glide_eff_state_penalty>  (93) 
0

>  <ligand_id>  (93) 
36

>  <original_smiles>  (93) 
O=C1C(=O)C23C(=Nc4ccccc42)CN1C(c1ccc(Cl)cc1)C31SCCS1

>  <smiles>  (93) 
[H]c1c([H])c([H])c2c(c1[H])N=C1C([H])([H])N3C(=O)C(=O)C12C1(SC([H])([H])C([H])([H])S1)C3([H])c1c([H])c([H])c(Cl)c([H])c1[H]

$$$$
37:0:0
     RDKit          3D

 95101  0  0  1  0  0  0  0  0999 V2000
    4.5345   -4.4326    2.2294 C   0  0  0  0  0  0  0  0  0  0  0  0
    3.9302   -5.2706    3.1050 C   0  0  0  0  0  0  0  0  0  0  0  0
    3.6121   -4.6911    4.5843 C   0  0  1  0  0  0  0  0  0  0  0  0
    2.9213   -3.3496    4.8206 C   0  0  1  0  0  0  0  0  0  0  0  0
    1.5083   -3.1904    4.2510 C   0  0  0  0  0  0  0  0  0  0  0  0
    2.9710   -3.2233    6.2519 O   0  0  0  0  0  0  0  0  0  0  0  0
    3.8808   -4.1742    6.8568 C   0  0  0  0  0  0  0  0  0  0  0  0
    3.7473   -5.4576    6.0195 C   0  0  2  0  0  0  0  0  0  0  0  0
    5.0630   -6.1903    5.6361 C   0  0  0  0  0  0  0  0  0  0  0  0
    4.7354   -7.4928    4.8259 C   0  0  1  0  0  0  0  0  0  0  0  0
    5.7451   -7.3900    3.7969 O   0  0  0  0  0  0  0  0  0  0  0  0
    7.1640   -7.4835    3.9570 C   0  0  0  0  0  0  0  0  0  0  0  0
    5.1491   -8.8624    5.5734 C   0  0  1  0  0  0  0  0  0  0  0  0
    6.3633   -8.8894    6.5617 C   0  0  0  0  0  0  0  0  0  0  0  0
    3.9291   -9.6465    6.1970 C   0  0  1  0  0  0  0  0  0  0  0  0
    4.3768  -10.9509    6.5024 O   0  0  0  0  0  0  0  0  0  0  0  0
    3.6177   -9.0386    7.3851 O   0  0  0  0  0  0  0  0  0  0  0  0
    3.6729   -7.6328    7.4914 C   0  0  0  0  0  0  0  0  0  0  0  0
    2.6959   -6.5672    6.7264 C   0  0  1  0  0  0  0  0  0  0  0  0
    1.6419   -6.7695    7.9049 C   0  0  1  0  0  0  0  0  0  0  0  0
    0.5137   -5.9089    8.1721 O   0  0  0  0  0  0  0  0  0  0  0  0
    0.7633   -4.5361    8.3995 C   0  0  0  0  0  0  0  0  0  0  0  0
   -0.5365   -3.7098    8.3473 C   0  0  0  0  0  0  0  0  0  0  0  0
   -1.3033   -3.8641    7.0232 C   0  0  0  0  0  0  0  0  0  0  0  0
   -1.4513   -4.0432    9.5211 C   0  0  0  0  0  0  0  0  0  0  0  0
   -0.1906   -2.3534    8.4531 O   0  0  0  0  0  0  0  0  0  0  0  0
    1.1141   -8.3213    7.7019 C   0  0  0  0  0  0  0  0  0  0  0  0
    1.2916   -9.3132    6.3524 C   0  0  1  0  0  0  0  0  0  0  0  0
    0.0754   -9.3099    5.6291 O   0  0  0  0  0  0  0  0  0  0  0  0
    2.5849   -9.6989    5.3453 C   0  0  2  0  0  0  0  0  0  0  0  0
    2.2963  -11.1678    4.9044 C   0  0  0  0  0  0  0  0  0  0  0  0
    2.9976   -9.0579    3.8964 C   0  0  1  0  0  0  0  0  0  0  0  0
    2.4897   -9.5435    2.5045 C   0  0  0  0  0  0  0  0  0  0  0  0
    3.3534   -8.9991    1.3418 C   0  0  0  0  0  0  0  0  0  0  0  0
    4.1737   -7.6673    1.5528 C   0  0  1  0  0  0  0  0  0  0  0  0
    4.5589   -7.0632    0.1902 C   0  0  0  0  0  0  0  0  0  0  0  0
    3.4886   -6.7184    2.6301 C   0  0  2  0  0  0  0  0  0  0  0  0
    2.3720   -6.4544    1.7749 O   0  0  0  0  0  0  0  0  0  0  0  0
    3.2928   -7.5437    3.9554 C   0  0  2  0  0  0  0  0  0  0  0  0
    1.8569   -6.9531    4.2911 C   0  0  1  0  0  0  0  0  0  0  0  0
    0.7456   -7.5943    3.6635 O   0  0  0  0  0  0  0  0  0  0  0  0
    1.5540   -6.5751    5.6546 C   0  0  1  0  0  0  0  0  0  0  0  0
    0.1258   -6.5784    5.8024 O   0  0  0  0  0  0  0  0  0  0  0  0
    4.7164   -4.7045    1.2040 H   0  0  0  0  0  0  0  0  0  0  0  0
    4.8128   -3.4265    2.5084 H   0  0  0  0  0  0  0  0  0  0  0  0
    4.5545   -4.1535    4.5813 H   0  0  0  0  0  0  0  0  0  0  0  0
    3.5200   -2.5265    4.4053 H   0  0  0  0  0  0  0  0  0  0  0  0
    1.4622   -3.4513    3.1932 H   0  0  0  0  0  0  0  0  0  0  0  0
    1.1643   -2.1649    4.3489 H   0  0  0  0  0  0  0  0  0  0  0  0
    0.7715   -3.8149    4.7678 H   0  0  0  0  0  0  0  0  0  0  0  0
    4.8955   -3.7788    6.8058 H   0  0  0  0  0  0  0  0  0  0  0  0
    3.6590   -4.3459    7.9171 H   0  0  0  0  0  0  0  0  0  0  0  0
    5.7502   -5.5794    5.0598 H   0  0  0  0  0  0  0  0  0  0  0  0
    5.7638   -6.3096    6.4502 H   0  0  0  0  0  0  0  0  0  0  0  0
    7.6247   -7.2145    3.0057 H   0  0  0  0  0  0  0  0  0  0  0  0
    7.4935   -8.5011    4.1671 H   0  0  0  0  0  0  0  0  0  0  0  0
    7.5666   -6.7987    4.7016 H   0  0  0  0  0  0  0  0  0  0  0  0
    5.5405   -9.5154    4.7923 H   0  0  0  0  0  0  0  0  0  0  0  0
    6.0818   -8.8817    7.6161 H   0  0  0  0  0  0  0  0  0  0  0  0
    7.0763   -8.0842    6.4301 H   0  0  0  0  0  0  0  0  0  0  0  0
    6.9178   -9.8192    6.4233 H   0  0  0  0  0  0  0  0  0  0  0  0
    3.6193  -11.4467    6.8282 H   0  0  0  0  0  0  0  0  0  0  0  0
    3.6177   -7.6177    8.5756 H   0  0  0  0  0  0  0  0  0  0  0  0
    4.6791   -7.3077    7.6573 H   0  0  0  0  0  0  0  0  0  0  0  0
    2.0392   -6.6320    8.9122 H   0  0  0  0  0  0  0  0  0  0  0  0
    1.3188   -4.3933    9.3271 H   0  0  0  0  0  0  0  0  0  0  0  0
    1.3751   -4.1865    7.5913 H   0  0  0  0  0  0  0  0  0  0  0  0
   -1.5674   -4.8995    6.8354 H   0  0  0  0  0  0  0  0  0  0  0  0
   -0.6948   -3.5059    6.1780 H   0  0  0  0  0  0  0  0  0  0  0  0
   -2.2398   -3.3125    6.9990 H   0  0  0  0  0  0  0  0  0  0  0  0
   -1.7506   -5.0804    9.4447 H   0  0  0  0  0  0  0  0  0  0  0  0
   -2.3650   -3.4711    9.5175 H   0  0  0  0  0  0  0  0  0  0  0  0
   -0.9434   -3.9012   10.4764 H   0  0  0  0  0  0  0  0  0  0  0  0
    0.5438   -2.1889    7.8557 H   0  0  0  0  0  0  0  0  0  0  0  0
    1.5067   -8.8808    8.5493 H   0  0  0  0  0  0  0  0  0  0  0  0
    0.0498   -8.3030    7.9293 H   0  0  0  0  0  0  0  0  0  0  0  0
    1.1910  -10.2561    6.8921 H   0  0  0  0  0  0  0  0  0  0  0  0
   -0.3262  -10.1734    5.6527 H   0  0  0  0  0  0  0  0  0  0  0  0
    1.3754  -11.2383    4.3258 H   0  0  0  0  0  0  0  0  0  0  0  0
    2.1773  -11.8567    5.7224 H   0  0  0  0  0  0  0  0  0  0  0  0
    3.1123  -11.5970    4.3161 H   0  0  0  0  0  0  0  0  0  0  0  0
    3.9369   -9.5428    3.6672 H   0  0  0  0  0  0  0  0  0  0  0  0
    2.5302  -10.6295    2.4317 H   0  0  0  0  0  0  0  0  0  0  0  0
    1.4562   -9.3147    2.3120 H   0  0  0  0  0  0  0  0  0  0  0  0
    4.0537   -9.7699    1.0507 H   0  0  0  0  0  0  0  0  0  0  0  0
    2.6622   -8.9300    0.5287 H   0  0  0  0  0  0  0  0  0  0  0  0
    5.1352   -8.0580    1.8647 H   0  0  0  0  0  0  0  0  0  0  0  0
    3.7667   -6.4866   -0.2932 H   0  0  0  0  0  0  0  0  0  0  0  0
    4.7744   -7.8978   -0.4684 H   0  0  0  0  0  0  0  0  0  0  0  0
    5.4548   -6.4409    0.2397 H   0  0  0  0  0  0  0  0  0  0  0  0
    2.7131   -6.2013    0.9221 H   0  0  0  0  0  0  0  0  0  0  0  0
    1.6648   -5.9813    3.8467 H   0  0  0  0  0  0  0  0  0  0  0  0
    0.6234   -8.4514    4.0823 H   0  0  0  0  0  0  0  0  0  0  0  0
    1.4727   -5.5004    5.6641 H   0  0  0  0  0  0  0  0  0  0  0  0
   -0.1376   -7.5051    5.8171 H   0  0  0  0  0  0  0  0  0  0  0  0
  1  2  2  0
  1 44  1  0
  1 45  1  0
  2 37  1  0
  2  3  1  0
  3  8  1  0
  3  4  1  0
  3 46  1  1
  4  5  1  0
  4  6  1  0
  4 47  1  6
  5 48  1  0
  5 49  1  0
  5 50  1  0
  6  7  1  0
  8  7  1  1
  7 51  1  0
  7 52  1  0
  8 19  1  0
  8  9  1  0
  9 10  1  0
  9 53  1  0
  9 54  1  0
 10 39  1  0
 10 11  1  6
 10 13  1  0
 11 12  1  0
 12 55  1  0
 12 56  1  0
 12 57  1  0
 13 14  1  0
 13 15  1  0
 13 58  1  6
 14 59  1  0
 14 60  1  0
 14 61  1  0
 15 30  1  0
 15 16  1  1
 15 17  1  0
 16 62  1  0
 17 18  1  0
 19 18  1  6
 18 63  1  0
 18 64  1  0
 19 42  1  0
 19 20  1  0
 20 21  1  0
 20 27  1  0
 20 65  1  1
 21 22  1  0
 22 23  1  0
 22 66  1  0
 22 67  1  0
 23 24  1  0
 23 25  1  0
 23 26  1  0
 24 68  1  0
 24 69  1  0
 24 70  1  0
 25 71  1  0
 25 72  1  0
 25 73  1  0
 26 74  1  0
 27 28  1  0
 27 75  1  0
 27 76  1  0
 28 29  1  0
 28 30  1  0
 28 77  1  1
 29 78  1  0
 30 31  1  6
 30 32  1  0
 31 79  1  0
 31 80  1  0
 31 81  1  0
 32 39  1  0
 32 33  1  0
 32 82  1  6
 33 34  1  0
 33 83  1  0
 33 84  1  0
 34 35  1  0
 34 85  1  0
 34 86  1  0
 35 36  1  0
 35 37  1  0
 35 87  1  1
 36 88  1  0
 36 89  1  0
 36 90  1  0
 37 38  1  6
 39 37  1  6
 38 91  1  0
 39 40  1  0
 40 41  1  0
 40 42  1  0
 40 92  1  6
 41 93  1  0
 42 43  1  0
 42 94  1  6
 43 95  1  0
M  END
>  <i_m_ct_stereo_status>  (94) 
1

>  <s_m_source_file>  (94) 
/var/tmp/pbs.5076255.sched01/tmpxs4nfypl/40fgi3imsd.sdf

>  <i_m_source_file_index>  (94) 
8

>  <i_lp_mmshare_version>  (94) 
48012

>  <i_f3d_flags>  (94) 
0

>  <s_epik_input>  (94) 
W0NIMl0xT1tDQEhdKFtDSDNdKVtDQEBIXTJDKD1bQ0gyXSlbQ0BAXShbT0hdKShbQ0BIXShbQ0gzXSlbQ0gyXVtDSDJdMylbQ0BAXShbQ0BdKFtDSDJdNCkoT1tDSDNdKVtDQEhdNVtDSDNdKShbQ0BASF0oW09IXSlbQ0BIXTZbT0hdKVtDQEhdM1tDQEBdKFtDSDNdKShbQ0BdNShbT0hdKU9bQ0gyXUM2N1tDQF0xMjQpW0NASF0oW09IXSlbQ0gyXVtDQEBIXTdPW0NIMl1DKFtDSDNdKShbQ0gzXSlbT0hd

>  <s_epik_cmdline>  (94) 
J2VwaWtfcHl0aG9uJywgJy1waHQnLCAnMi4wJywgJy1waCcsICc3LjAnLCAnLXRuJywgJzgnLCAnLW1hJywgJzIwMCcsICctaW1hZScsICc8aW5maWxlLm1hZT4nLCAnLW9tYWUnLCAnPG91dGZpbGUubWFlPic=

>  <r_lp_tautomer_probability>  (94) 
1

>  <r_epik_Ionization_Penalty>  (94) 
3.70182e-07

>  <r_epik_Ionization_Penalty_Charging>  (94) 
0

>  <r_epik_Ionization_Penalty_Neutral>  (94) 
3.70182e-07

>  <r_epik_State_Penalty>  (94) 
-0

>  <r_epik_Charging_Adjusted_Penalty>  (94) 
0

>  <i_epik_Tot_Q>  (94) 
0

>  <i_epik_Tot_abs_Q>  (94) 
0

>  <s_lp_Force_Field>  (94) 
OPLS3e

>  <r_lp_Energy>  (94) 
441.853

>  <b_lp_Chiralities_Consistent>  (94) 
1

>  <s_lp_Variant>  (94) 
37:0-1

>  <s_i_glide_gridfile>  (94) 
pfpi4k_grid

>  <i_i_glide_lignum>  (94) 
8

>  <i_i_glide_rotatable_bonds>  (94) 
10

>  <r_i_docking_score>  (94) 
-3.61272

>  <r_i_glide_ligand_efficiency>  (94) 
-0.0840168

>  <r_i_glide_ligand_efficiency_sa>  (94) 
-0.294344

>  <r_i_glide_ligand_efficiency_ln>  (94) 
-0.758784

>  <r_i_glide_gscore>  (94) 
-3.61272

>  <r_i_glide_lipo>  (94) 
-0.161293

>  <r_i_glide_hbond>  (94) 
-0.15468

>  <r_i_glide_metal>  (94) 
-0

>  <r_i_glide_rewards>  (94) 
-1

>  <r_i_glide_evdw>  (94) 
-19.0393

>  <r_i_glide_ecoul>  (94) 
-9.15541

>  <r_i_glide_erotb>  (94) 
0.0468349

>  <r_i_glide_esite>  (94) 
-0.0183066

>  <r_i_glide_emodel>  (94) 
-46.9093

>  <r_i_glide_energy>  (94) 
-28.1947

>  <r_i_glide_einternal>  (94) 
1.4123

>  <r_i_glide_intrahb_reward>  (94) 
-1

>  <i_i_glide_confnum>  (94) 
1

>  <i_i_glide_posenum>  (94) 
21

>  <r_i_glide_eff_state_penalty>  (94) 
0

>  <ligand_id>  (94) 
37

>  <original_smiles>  (94) 
C=C1C2C(C)OCC23CC2(OC)C(C)C4(O)OCC35C(OCC(C)(C)O)CC(O)C4(C)C3CCC(C)C1(O)C32C(O)C5O

>  <smiles>  (94) 
[H]OC1([H])C([H])([H])C([H])(OC([H])([H])C(O[H])(C([H])([H])[H])C([H])([H])[H])C23C([H])([H])OC4(O[H])C([H])(C([H])([H])[H])C5(OC([H])([H])[H])C([H])([H])C26C([H])([H])OC([H])(C([H])([H])[H])C6([H])C(=C([H])[H])C2(O[H])C([H])(C([H])([H])[H])C([H])([H])C([H])([H])C([H])(C14C([H])([H])[H])C25C([H])(O[H])C3([H])O[H]

$$$$
37:0:1
     RDKit          3D

 95101  0  0  1  0  0  0  0  0999 V2000
    1.9638    1.4112    9.7111 C   0  0  0  0  0  0  0  0  0  0  0  0
    1.6566    1.5147    8.4029 C   0  0  0  0  0  0  0  0  0  0  0  0
    2.8338    1.1995    7.3215 C   0  0  1  0  0  0  0  0  0  0  0  0
    3.7064   -0.0717    7.3473 C   0  0  1  0  0  0  0  0  0  0  0  0
    3.0191   -1.4393    7.2284 C   0  0  0  0  0  0  0  0  0  0  0  0
    4.6155    0.1405    6.2527 O   0  0  0  0  0  0  0  0  0  0  0  0
    4.6285    1.5187    5.8325 C   0  0  0  0  0  0  0  0  0  0  0  0
    3.1687    1.9841    5.9379 C   0  0  2  0  0  0  0  0  0  0  0  0
    2.8712    3.3915    6.5183 C   0  0  0  0  0  0  0  0  0  0  0  0
    1.3298    3.6848    6.4635 C   0  0  1  0  0  0  0  0  0  0  0  0
    1.1501    4.2795    7.7654 O   0  0  0  0  0  0  0  0  0  0  0  0
    1.6805    5.5237    8.2289 C   0  0  0  0  0  0  0  0  0  0  0  0
    0.9206    4.8923    5.4775 C   0  0  1  0  0  0  0  0  0  0  0  0
    1.9089    6.0780    5.2218 C   0  0  0  0  0  0  0  0  0  0  0  0
    0.2996    4.4067    4.1106 C   0  0  1  0  0  0  0  0  0  0  0  0
   -0.2978    5.5287    3.4968 O   0  0  0  0  0  0  0  0  0  0  0  0
    1.3293    4.0363    3.2994 O   0  0  0  0  0  0  0  0  0  0  0  0
    2.4305    3.3523    3.8336 C   0  0  0  0  0  0  0  0  0  0  0  0
    2.4097    1.8384    4.4496 C   0  0  1  0  0  0  0  0  0  0  0  0
    2.5909    1.3032    2.9622 C   0  0  1  0  0  0  0  0  0  0  0  0
    3.1209   -0.0114    2.6926 O   0  0  0  0  0  0  0  0  0  0  0  0
    3.4728   -0.2934    1.3236 C   0  0  0  0  0  0  0  0  0  0  0  0
    3.5391   -1.8111    1.0537 C   0  0  0  0  0  0  0  0  0  0  0  0
    4.2714   -2.1258   -0.2651 C   0  0  0  0  0  0  0  0  0  0  0  0
    4.1895   -2.5664    2.2192 C   0  0  0  0  0  0  0  0  0  0  0  0
    2.2243   -2.2662    0.8810 O   0  0  0  0  0  0  0  0  0  0  0  0
    1.1433    1.6299    2.2401 C   0  0  0  0  0  0  0  0  0  0  0  0
   -0.2966    2.0751    2.9703 C   0  0  1  0  0  0  0  0  0  0  0  0
   -1.1728    0.9681    3.0146 O   0  0  0  0  0  0  0  0  0  0  0  0
   -0.7187    3.1815    4.1549 C   0  0  2  0  0  0  0  0  0  0  0  0
   -2.1316    3.6602    3.6826 C   0  0  0  0  0  0  0  0  0  0  0  0
   -0.9725    2.9321    5.7646 C   0  0  1  0  0  0  0  0  0  0  0  0
   -2.3123    2.5150    6.4427 C   0  0  0  0  0  0  0  0  0  0  0  0
   -2.3065    2.7108    7.9962 C   0  0  0  0  0  0  0  0  0  0  0  0
   -0.9226    2.7335    8.7477 C   0  0  1  0  0  0  0  0  0  0  0  0
   -1.1511    2.5017   10.2652 C   0  0  0  0  0  0  0  0  0  0  0  0
    0.1638    1.8523    7.9754 C   0  0  2  0  0  0  0  0  0  0  0  0
   -0.5413    0.6469    8.2750 O   0  0  0  0  0  0  0  0  0  0  0  0
    0.2722    2.3684    6.4864 C   0  0  2  0  0  0  0  0  0  0  0  0
    0.4050    0.9184    5.8350 C   0  0  1  0  0  0  0  0  0  0  0  0
   -0.8134    0.2359    5.5459 O   0  0  0  0  0  0  0  0  0  0  0  0
    1.3907    0.6952    4.7737 C   0  0  1  0  0  0  0  0  0  0  0  0
    1.0444   -0.4880    4.0260 O   0  0  0  0  0  0  0  0  0  0  0  0
    1.2336    1.5405   10.4886 H   0  0  0  0  0  0  0  0  0  0  0  0
    2.9602    1.1569   10.0483 H   0  0  0  0  0  0  0  0  0  0  0  0
    3.5663    1.6722    7.9756 H   0  0  0  0  0  0  0  0  0  0  0  0
    4.2859   -0.0984    8.2751 H   0  0  0  0  0  0  0  0  0  0  0  0
    2.1471   -1.5029    7.8799 H   0  0  0  0  0  0  0  0  0  0  0  0
    3.7143   -2.2249    7.5292 H   0  0  0  0  0  0  0  0  0  0  0  0
    2.7101   -1.6763    6.2103 H   0  0  0  0  0  0  0  0  0  0  0  0
    5.2616    2.0956    6.5102 H   0  0  0  0  0  0  0  0  0  0  0  0
    5.0373    1.6166    4.8266 H   0  0  0  0  0  0  0  0  0  0  0  0
    3.2237    3.5168    7.5405 H   0  0  0  0  0  0  0  0  0  0  0  0
    3.5162    4.1751    6.1430 H   0  0  0  0  0  0  0  0  0  0  0  0
    1.4794    5.5924    9.2974 H   0  0  0  0  0  0  0  0  0  0  0  0
    1.1853    6.3834    7.7787 H   0  0  0  0  0  0  0  0  0  0  0  0
    2.7591    5.6135    8.1095 H   0  0  0  0  0  0  0  0  0  0  0  0
    0.1217    5.4278    5.9889 H   0  0  0  0  0  0  0  0  0  0  0  0
    2.4369    6.0198    4.2696 H   0  0  0  0  0  0  0  0  0  0  0  0
    2.6681    6.2120    5.9883 H   0  0  0  0  0  0  0  0  0  0  0  0
    1.3475    7.0125    5.1775 H   0  0  0  0  0  0  0  0  0  0  0  0
   -0.1851    5.4033    2.5576 H   0  0  0  0  0  0  0  0  0  0  0  0
    3.0495    3.5253    2.9600 H   0  0  0  0  0  0  0  0  0  0  0  0
    3.1263    4.0265    4.2857 H   0  0  0  0  0  0  0  0  0  0  0  0
    3.4128    1.7722    2.4163 H   0  0  0  0  0  0  0  0  0  0  0  0
    2.7868    0.1541    0.6033 H   0  0  0  0  0  0  0  0  0  0  0  0
    4.4492    0.1619    1.1249 H   0  0  0  0  0  0  0  0  0  0  0  0
    5.3053   -1.7692   -0.2457 H   0  0  0  0  0  0  0  0  0  0  0  0
    3.7807   -1.6686   -1.1281 H   0  0  0  0  0  0  0  0  0  0  0  0
    4.3102   -3.2009   -0.4492 H   0  0  0  0  0  0  0  0  0  0  0  0
    5.2185   -2.2342    2.3691 H   0  0  0  0  0  0  0  0  0  0  0  0
    4.2040   -3.6389    2.0401 H   0  0  0  0  0  0  0  0  0  0  0  0
    3.6493   -2.4005    3.1501 H   0  0  0  0  0  0  0  0  0  0  0  0
    1.7640   -1.7127    0.2406 H   0  0  0  0  0  0  0  0  0  0  0  0
    1.3658    2.4100    1.5092 H   0  0  0  0  0  0  0  0  0  0  0  0
    0.8901    0.7961    1.5874 H   0  0  0  0  0  0  0  0  0  0  0  0
   -0.6917    2.5645    2.0816 H   0  0  0  0  0  0  0  0  0  0  0  0
   -2.0307    1.2521    2.7133 H   0  0  0  0  0  0  0  0  0  0  0  0
   -2.8604    2.8458    3.7364 H   0  0  0  0  0  0  0  0  0  0  0  0
   -2.1360    4.0126    2.6482 H   0  0  0  0  0  0  0  0  0  0  0  0
   -2.5067    4.4741    4.3044 H   0  0  0  0  0  0  0  0  0  0  0  0
   -1.1299    3.9263    6.1598 H   0  0  0  0  0  0  0  0  0  0  0  0
   -3.1363    3.1067    6.0505 H   0  0  0  0  0  0  0  0  0  0  0  0
   -2.5895    1.4949    6.2328 H   0  0  0  0  0  0  0  0  0  0  0  0
   -2.7938    3.6617    8.2061 H   0  0  0  0  0  0  0  0  0  0  0  0
   -2.9613    1.9636    8.4451 H   0  0  0  0  0  0  0  0  0  0  0  0
   -0.6995    3.7893    8.7400 H   0  0  0  0  0  0  0  0  0  0  0  0
   -1.3348    1.4609   10.5369 H   0  0  0  0  0  0  0  0  0  0  0  0
   -2.0285    3.0630   10.5925 H   0  0  0  0  0  0  0  0  0  0  0  0
   -0.3217    2.8877   10.8597 H   0  0  0  0  0  0  0  0  0  0  0  0
   -0.5410    0.5649    9.2176 H   0  0  0  0  0  0  0  0  0  0  0  0
    0.7788    0.1560    6.5144 H   0  0  0  0  0  0  0  0  0  0  0  0
   -1.1078    0.5541    4.6901 H   0  0  0  0  0  0  0  0  0  0  0  0
    2.1440    0.0571    5.2010 H   0  0  0  0  0  0  0  0  0  0  0  0
    0.6483   -0.2058    3.2074 H   0  0  0  0  0  0  0  0  0  0  0  0
  1  2  2  0
  1 44  1  0
  1 45  1  0
  2 37  1  0
  2  3  1  0
  3  8  1  0
  3  4  1  0
  3 46  1  1
  4  5  1  0
  4  6  1  0
  4 47  1  1
  5 48  1  0
  5 49  1  0
  5 50  1  0
  6  7  1  0
  8  7  1  6
  7 51  1  0
  7 52  1  0
  8 19  1  0
  8  9  1  0
  9 10  1  0
  9 53  1  0
  9 54  1  0
 10 39  1  0
 10 11  1  1
 10 13  1  0
 11 12  1  0
 12 55  1  0
 12 56  1  0
 12 57  1  0
 13 14  1  0
 13 15  1  0
 13 58  1  1
 14 59  1  0
 14 60  1  0
 14 61  1  0
 15 30  1  0
 15 16  1  6
 15 17  1  0
 16 62  1  0
 17 18  1  0
 19 18  1  6
 18 63  1  0
 18 64  1  0
 19 42  1  0
 19 20  1  0
 20 21  1  0
 20 27  1  0
 20 65  1  6
 21 22  1  0
 22 23  1  0
 22 66  1  0
 22 67  1  0
 23 24  1  0
 23 25  1  0
 23 26  1  0
 24 68  1  0
 24 69  1  0
 24 70  1  0
 25 71  1  0
 25 72  1  0
 25 73  1  0
 26 74  1  0
 27 28  1  0
 27 75  1  0
 27 76  1  0
 28 29  1  0
 28 30  1  0
 28 77  1  6
 29 78  1  0
 30 31  1  6
 30 32  1  0
 31 79  1  0
 31 80  1  0
 31 81  1  0
 32 39  1  0
 32 33  1  0
 32 82  1  1
 33 34  1  0
 33 83  1  0
 33 84  1  0
 34 35  1  0
 34 85  1  0
 34 86  1  0
 35 36  1  0
 35 37  1  0
 35 87  1  1
 36 88  1  0
 36 89  1  0
 36 90  1  0
 37 38  1  6
 39 37  1  1
 38 91  1  0
 39 40  1  0
 40 41  1  0
 40 42  1  0
 40 92  1  1
 41 93  1  0
 42 43  1  0
 42 94  1  1
 43 95  1  0
M  END
>  <i_m_ct_stereo_status>  (95) 
1

>  <s_m_source_file>  (95) 
/var/tmp/pbs.5076255.sched01/tmpxs4nfypl/40fgi3imsd.sdf

>  <i_m_source_file_index>  (95) 
8

>  <i_lp_mmshare_version>  (95) 
48012

>  <i_f3d_flags>  (95) 
0

>  <s_epik_input>  (95) 
W0NIMl0xT1tDQEhdKFtDSDNdKVtDQEBIXTJDKD1bQ0gyXSlbQ0BAXShbT0hdKShbQ0BIXShbQ0gzXSlbQ0gyXVtDSDJdMylbQ0BAXShbQ0BdKFtDSDJdNCkoT1tDSDNdKVtDQEhdNVtDSDNdKShbQ0BASF0oW09IXSlbQ0BIXTZbT0hdKVtDQEhdM1tDQEBdKFtDSDNdKShbQ0BdNShbT0hdKU9bQ0gyXUM2N1tDQF0xMjQpW0NASF0oW09IXSlbQ0gyXVtDQEBIXTdPW0NIMl1DKFtDSDNdKShbQ0gzXSlbT0hd

>  <s_epik_cmdline>  (95) 
J2VwaWtfcHl0aG9uJywgJy1waHQnLCAnMi4wJywgJy1waCcsICc3LjAnLCAnLXRuJywgJzgnLCAnLW1hJywgJzIwMCcsICctaW1hZScsICc8aW5maWxlLm1hZT4nLCAnLW9tYWUnLCAnPG91dGZpbGUubWFlPic=

>  <r_lp_tautomer_probability>  (95) 
1

>  <r_epik_Ionization_Penalty>  (95) 
3.70182e-07

>  <r_epik_Ionization_Penalty_Charging>  (95) 
0

>  <r_epik_Ionization_Penalty_Neutral>  (95) 
3.70182e-07

>  <r_epik_State_Penalty>  (95) 
-0

>  <r_epik_Charging_Adjusted_Penalty>  (95) 
0

>  <i_epik_Tot_Q>  (95) 
0

>  <i_epik_Tot_abs_Q>  (95) 
0

>  <s_lp_Force_Field>  (95) 
OPLS3e

>  <r_lp_Energy>  (95) 
441.853

>  <b_lp_Chiralities_Consistent>  (95) 
1

>  <s_lp_Variant>  (95) 
37:0-1

>  <s_i_glide_gridfile>  (95) 
pfpi4k_grid

>  <i_i_glide_lignum>  (95) 
8

>  <i_i_glide_rotatable_bonds>  (95) 
10

>  <r_i_docking_score>  (95) 
-3.48353

>  <r_i_glide_ligand_efficiency>  (95) 
-0.0810123

>  <r_i_glide_ligand_efficiency_sa>  (95) 
-0.283818

>  <r_i_glide_ligand_efficiency_ln>  (95) 
-0.731649

>  <r_i_glide_gscore>  (95) 
-3.48353

>  <r_i_glide_lipo>  (95) 
-0.16457

>  <r_i_glide_hbond>  (95) 
0

>  <r_i_glide_metal>  (95) 
-0

>  <r_i_glide_rewards>  (95) 
-0.5

>  <r_i_glide_evdw>  (95) 
-24.4115

>  <r_i_glide_ecoul>  (95) 
-10.4163

>  <r_i_glide_erotb>  (95) 
0.0327844

>  <r_i_glide_esite>  (95) 
-0.0687185

>  <r_i_glide_emodel>  (95) 
-45.0139

>  <r_i_glide_energy>  (95) 
-34.8278

>  <r_i_glide_einternal>  (95) 
5.88894

>  <r_i_glide_intrahb_reward>  (95) 
-0.5

>  <i_i_glide_confnum>  (95) 
4

>  <i_i_glide_posenum>  (95) 
27

>  <r_i_glide_eff_state_penalty>  (95) 
0

>  <ligand_id>  (95) 
37

>  <original_smiles>  (95) 
C=C1C2C(C)OCC23CC2(OC)C(C)C4(O)OCC35C(OCC(C)(C)O)CC(O)C4(C)C3CCC(C)C1(O)C32C(O)C5O

>  <smiles>  (95) 
[H]OC1([H])C([H])([H])C([H])(OC([H])([H])C(O[H])(C([H])([H])[H])C([H])([H])[H])C23C([H])([H])OC4(O[H])C([H])(C([H])([H])[H])C5(OC([H])([H])[H])C([H])([H])C26C([H])([H])OC([H])(C([H])([H])[H])C6([H])C(=C([H])[H])C2(O[H])C([H])(C([H])([H])[H])C([H])([H])C([H])([H])C([H])(C14C([H])([H])[H])C25C([H])(O[H])C3([H])O[H]

$$$$
37:0:2
     RDKit          3D

 95101  0  0  1  0  0  0  0  0999 V2000
    2.4216    0.6969    9.4210 C   0  0  0  0  0  0  0  0  0  0  0  0
    2.0399    0.8785    8.1378 C   0  0  0  0  0  0  0  0  0  0  0  0
    3.1582    0.6377    6.9790 C   0  0  1  0  0  0  0  0  0  0  0  0
    4.0318   -0.6305    6.8772 C   0  0  1  0  0  0  0  0  0  0  0  0
    3.3394   -1.9924    6.7132 C   0  0  0  0  0  0  0  0  0  0  0  0
    4.8785   -0.3499    5.7492 O   0  0  0  0  0  0  0  0  0  0  0  0
    4.8687    1.0519    5.4139 C   0  0  0  0  0  0  0  0  0  0  0  0
    3.4151    1.5055    5.6255 C   0  0  2  0  0  0  0  0  0  0  0  0
    3.1493    2.8734    6.3099 C   0  0  0  0  0  0  0  0  0  0  0  0
    1.6057    3.1627    6.3606 C   0  0  1  0  0  0  0  0  0  0  0  0
    1.4992    3.6740    7.7040 O   0  0  0  0  0  0  0  0  0  0  0  0
    2.0483    4.8928    8.2111 C   0  0  0  0  0  0  0  0  0  0  0  0
    1.1379    4.4294    5.4778 C   0  0  1  0  0  0  0  0  0  0  0  0
    2.1123    5.6301    5.2372 C   0  0  0  0  0  0  0  0  0  0  0  0
    0.4419    4.0283    4.1230 C   0  0  1  0  0  0  0  0  0  0  0  0
   -0.1932    5.1825    3.6115 O   0  0  0  0  0  0  0  0  0  0  0  0
    1.4245    3.7133    3.2366 O   0  0  0  0  0  0  0  0  0  0  0  0
    2.5548    3.0008    3.6616 C   0  0  0  0  0  0  0  0  0  0  0  0
    2.5718    1.4506    4.1734 C   0  0  1  0  0  0  0  0  0  0  0  0
    2.6619    1.0071    2.6480 C   0  0  1  0  0  0  0  0  0  0  0  0
    3.1997   -0.2838    2.2861 O   0  0  0  0  0  0  0  0  0  0  0  0
    3.4875   -0.4980    0.8912 C   0  0  0  0  0  0  0  0  0  0  0  0
    3.8241   -1.9741    0.5775 C   0  0  0  0  0  0  0  0  0  0  0  0
    4.6805   -2.1064   -0.6964 C   0  0  0  0  0  0  0  0  0  0  0  0
    4.5147   -2.6492    1.7708 C   0  0  0  0  0  0  0  0  0  0  0  0
    2.6121   -2.6549    0.2854 O   0  0  0  0  0  0  0  0  0  0  0  0
    1.1789    1.3701    2.0310 C   0  0  0  0  0  0  0  0  0  0  0  0
   -0.2114    1.7750    2.8650 C   0  0  1  0  0  0  0  0  0  0  0  0
   -1.0698    0.6561    2.9057 O   0  0  0  0  0  0  0  0  0  0  0  0
   -0.5689    2.7977    4.1405 C   0  0  2  0  0  0  0  0  0  0  0  0
   -2.0073    3.2977    3.7756 C   0  0  0  0  0  0  0  0  0  0  0  0
   -0.7336    2.4373    5.7401 C   0  0  1  0  0  0  0  0  0  0  0  0
   -2.0392    1.9737    6.4592 C   0  0  0  0  0  0  0  0  0  0  0  0
   -1.9399    2.0888    8.0200 C   0  0  0  0  0  0  0  0  0  0  0  0
   -0.5166    2.0673    8.6954 C   0  0  1  0  0  0  0  0  0  0  0  0
   -0.6633    1.7428   10.2056 C   0  0  0  0  0  0  0  0  0  0  0  0
    0.5218    1.2297    7.8195 C   0  0  2  0  0  0  0  0  0  0  0  0
   -0.1659   -0.0026    8.0787 O   0  0  0  0  0  0  0  0  0  0  0  0
    0.5520    1.8398    6.3613 C   0  0  2  0  0  0  0  0  0  0  0  0
    0.6558    0.4400    5.6115 C   0  0  1  0  0  0  0  0  0  0  0  0
   -0.5743   -0.2377    5.3702 O   0  0  0  0  0  0  0  0  0  0  0  0
    1.5797    0.2806    4.4865 C   0  0  1  0  0  0  0  0  0  0  0  0
    1.1704   -0.8435    3.6812 O   0  0  0  0  0  0  0  0  0  0  0  0
    1.7263    0.7702   10.2349 H   0  0  0  0  0  0  0  0  0  0  0  0
    3.4351    0.4254    9.6882 H   0  0  0  0  0  0  0  0  0  0  0  0
    3.9291    1.0706    7.6187 H   0  0  0  0  0  0  0  0  0  0  0  0
    4.6621   -0.7144    7.7688 H   0  0  0  0  0  0  0  0  0  0  0  0
    2.5052   -2.1020    7.4067 H   0  0  0  0  0  0  0  0  0  0  0  0
    4.0507   -2.7920    6.9265 H   0  0  0  0  0  0  0  0  0  0  0  0
    2.9761   -2.1690    5.7005 H   0  0  0  0  0  0  0  0  0  0  0  0
    5.5393    1.5889    6.0899 H   0  0  0  0  0  0  0  0  0  0  0  0
    5.2286    1.2120    4.3963 H   0  0  0  0  0  0  0  0  0  0  0  0
    3.5580    2.9379    7.3175 H   0  0  0  0  0  0  0  0  0  0  0  0
    3.7731    3.6819    5.9500 H   0  0  0  0  0  0  0  0  0  0  0  0
    1.9053    4.8937    9.2910 H   0  0  0  0  0  0  0  0  0  0  0  0
    1.5238    5.7732    7.8403 H   0  0  0  0  0  0  0  0  0  0  0  0
    3.1185    4.9967    8.0367 H   0  0  0  0  0  0  0  0  0  0  0  0
    0.3664    4.9291    6.0639 H   0  0  0  0  0  0  0  0  0  0  0  0
    2.5877    5.6313    4.2547 H   0  0  0  0  0  0  0  0  0  0  0  0
    2.9143    5.7195    5.9657 H   0  0  0  0  0  0  0  0  0  0  0  0
    1.5497    6.5641    5.2804 H   0  0  0  0  0  0  0  0  0  0  0  0
   -0.1830    5.0799    2.6629 H   0  0  0  0  0  0  0  0  0  0  0  0
    3.1208    3.2333    2.7668 H   0  0  0  0  0  0  0  0  0  0  0  0
    3.2831    3.6430    4.1112 H   0  0  0  0  0  0  0  0  0  0  0  0
    3.4140    1.5298    2.0667 H   0  0  0  0  0  0  0  0  0  0  0  0
    2.6602   -0.2047    0.2494 H   0  0  0  0  0  0  0  0  0  0  0  0
    4.3356    0.1337    0.6092 H   0  0  0  0  0  0  0  0  0  0  0  0
    5.6303   -1.5810   -0.5957 H   0  0  0  0  0  0  0  0  0  0  0  0
    4.1700   -1.7070   -1.5752 H   0  0  0  0  0  0  0  0  0  0  0  0
    4.9072   -3.1521   -0.9012 H   0  0  0  0  0  0  0  0  0  0  0  0
    5.4524   -2.1444    1.9990 H   0  0  0  0  0  0  0  0  0  0  0  0
    4.7249   -3.6954    1.5688 H   0  0  0  0  0  0  0  0  0  0  0  0
    3.8914   -2.6067    2.6628 H   0  0  0  0  0  0  0  0  0  0  0  0
    2.0511   -2.0457   -0.1973 H   0  0  0  0  0  0  0  0  0  0  0  0
    1.3597    2.1890    1.3345 H   0  0  0  0  0  0  0  0  0  0  0  0
    0.8928    0.5735    1.3470 H   0  0  0  0  0  0  0  0  0  0  0  0
   -0.6519    2.3238    2.0325 H   0  0  0  0  0  0  0  0  0  0  0  0
   -1.9443    0.9419    2.6601 H   0  0  0  0  0  0  0  0  0  0  0  0
   -2.7293    2.4762    3.8165 H   0  0  0  0  0  0  0  0  0  0  0  0
   -2.0689    3.7109    2.7660 H   0  0  0  0  0  0  0  0  0  0  0  0
   -2.3534    4.0724    4.4633 H   0  0  0  0  0  0  0  0  0  0  0  0
   -0.8707    3.4053    6.2027 H   0  0  0  0  0  0  0  0  0  0  0  0
   -2.8740    2.5995    6.1555 H   0  0  0  0  0  0  0  0  0  0  0  0
   -2.3614    0.9760    6.1922 H   0  0  0  0  0  0  0  0  0  0  0  0
   -2.4115    3.0278    8.3086 H   0  0  0  0  0  0  0  0  0  0  0  0
   -2.5694    1.3279    8.4686 H   0  0  0  0  0  0  0  0  0  0  0  0
   -0.2923    3.1225    8.7414 H   0  0  0  0  0  0  0  0  0  0  0  0
   -0.8183    0.6801   10.4082 H   0  0  0  0  0  0  0  0  0  0  0  0
   -1.5261    2.2709   10.6180 H   0  0  0  0  0  0  0  0  0  0  0  0
    0.1981    2.0922   10.7775 H   0  0  0  0  0  0  0  0  0  0  0  0
    0.3316   -0.7000    7.6830 H   0  0  0  0  0  0  0  0  0  0  0  0
    1.0705   -0.3550    6.2209 H   0  0  0  0  0  0  0  0  0  0  0  0
   -0.9339    0.1348    4.5637 H   0  0  0  0  0  0  0  0  0  0  0  0
    2.3589   -0.3843    4.8221 H   0  0  0  0  0  0  0  0  0  0  0  0
    0.5929   -0.5147    2.9988 H   0  0  0  0  0  0  0  0  0  0  0  0
  1  2  2  0
  1 44  1  0
  1 45  1  0
  2 37  1  0
  2  3  1  0
  3  8  1  0
  3  4  1  0
  3 46  1  1
  4  5  1  0
  4  6  1  0
  4 47  1  1
  5 48  1  0
  5 49  1  0
  5 50  1  0
  6  7  1  0
  8  7  1  6
  7 51  1  0
  7 52  1  0
  8 19  1  0
  8  9  1  0
  9 10  1  0
  9 53  1  0
  9 54  1  0
 10 39  1  0
 10 11  1  1
 10 13  1  0
 11 12  1  0
 12 55  1  0
 12 56  1  0
 12 57  1  0
 13 14  1  0
 13 15  1  0
 13 58  1  1
 14 59  1  0
 14 60  1  0
 14 61  1  0
 15 30  1  0
 15 16  1  6
 15 17  1  0
 16 62  1  0
 17 18  1  0
 19 18  1  6
 18 63  1  0
 18 64  1  0
 19 42  1  0
 19 20  1  0
 20 21  1  0
 20 27  1  0
 20 65  1  6
 21 22  1  0
 22 23  1  0
 22 66  1  0
 22 67  1  0
 23 24  1  0
 23 25  1  0
 23 26  1  0
 24 68  1  0
 24 69  1  0
 24 70  1  0
 25 71  1  0
 25 72  1  0
 25 73  1  0
 26 74  1  0
 27 28  1  0
 27 75  1  0
 27 76  1  0
 28 29  1  0
 28 30  1  0
 28 77  1  6
 29 78  1  0
 30 31  1  6
 30 32  1  0
 31 79  1  0
 31 80  1  0
 31 81  1  0
 32 39  1  0
 32 33  1  0
 32 82  1  1
 33 34  1  0
 33 83  1  0
 33 84  1  0
 34 35  1  0
 34 85  1  0
 34 86  1  0
 35 36  1  0
 35 37  1  0
 35 87  1  1
 36 88  1  0
 36 89  1  0
 36 90  1  0
 37 38  1  6
 39 37  1  1
 38 91  1  0
 39 40  1  0
 40 41  1  0
 40 42  1  0
 40 92  1  1
 41 93  1  0
 42 43  1  0
 42 94  1  1
 43 95  1  0
M  END
>  <i_m_ct_stereo_status>  (96) 
1

>  <s_m_source_file>  (96) 
/var/tmp/pbs.5076255.sched01/tmpxs4nfypl/40fgi3imsd.sdf

>  <i_m_source_file_index>  (96) 
8

>  <i_lp_mmshare_version>  (96) 
48012

>  <i_f3d_flags>  (96) 
0

>  <s_epik_input>  (96) 
W0NIMl0xT1tDQEhdKFtDSDNdKVtDQEBIXTJDKD1bQ0gyXSlbQ0BAXShbT0hdKShbQ0BIXShbQ0gzXSlbQ0gyXVtDSDJdMylbQ0BAXShbQ0BdKFtDSDJdNCkoT1tDSDNdKVtDQEhdNVtDSDNdKShbQ0BASF0oW09IXSlbQ0BIXTZbT0hdKVtDQEhdM1tDQEBdKFtDSDNdKShbQ0BdNShbT0hdKU9bQ0gyXUM2N1tDQF0xMjQpW0NASF0oW09IXSlbQ0gyXVtDQEBIXTdPW0NIMl1DKFtDSDNdKShbQ0gzXSlbT0hd

>  <s_epik_cmdline>  (96) 
J2VwaWtfcHl0aG9uJywgJy1waHQnLCAnMi4wJywgJy1waCcsICc3LjAnLCAnLXRuJywgJzgnLCAnLW1hJywgJzIwMCcsICctaW1hZScsICc8aW5maWxlLm1hZT4nLCAnLW9tYWUnLCAnPG91dGZpbGUubWFlPic=

>  <r_lp_tautomer_probability>  (96) 
1

>  <r_epik_Ionization_Penalty>  (96) 
3.70182e-07

>  <r_epik_Ionization_Penalty_Charging>  (96) 
0

>  <r_epik_Ionization_Penalty_Neutral>  (96) 
3.70182e-07

>  <r_epik_State_Penalty>  (96) 
-0

>  <r_epik_Charging_Adjusted_Penalty>  (96) 
0

>  <i_epik_Tot_Q>  (96) 
0

>  <i_epik_Tot_abs_Q>  (96) 
0

>  <s_lp_Force_Field>  (96) 
OPLS3e

>  <r_lp_Energy>  (96) 
441.853

>  <b_lp_Chiralities_Consistent>  (96) 
1

>  <s_lp_Variant>  (96) 
37:0-1

>  <s_i_glide_gridfile>  (96) 
pfpi4k_grid

>  <i_i_glide_lignum>  (96) 
8

>  <i_i_glide_rotatable_bonds>  (96) 
10

>  <r_i_docking_score>  (96) 
-3.29589

>  <r_i_glide_ligand_efficiency>  (96) 
-0.0766486

>  <r_i_glide_ligand_efficiency_sa>  (96) 
-0.26853

>  <r_i_glide_ligand_efficiency_ln>  (96) 
-0.692239

>  <r_i_glide_gscore>  (96) 
-3.29589

>  <r_i_glide_lipo>  (96) 
-0.0499305

>  <r_i_glide_hbond>  (96) 
0

>  <r_i_glide_metal>  (96) 
-0

>  <r_i_glide_rewards>  (96) 
-0.5

>  <r_i_glide_evdw>  (96) 
-25.6141

>  <r_i_glide_ecoul>  (96) 
-9.68864

>  <r_i_glide_erotb>  (96) 
0.0468349

>  <r_i_glide_esite>  (96) 
-0.0587917

>  <r_i_glide_emodel>  (96) 
-45.1533

>  <r_i_glide_energy>  (96) 
-35.3027

>  <r_i_glide_einternal>  (96) 
5.86843

>  <r_i_glide_intrahb_reward>  (96) 
-0.5

>  <i_i_glide_confnum>  (96) 
4

>  <i_i_glide_posenum>  (96) 
35

>  <r_i_glide_eff_state_penalty>  (96) 
0

>  <ligand_id>  (96) 
37

>  <original_smiles>  (96) 
C=C1C2C(C)OCC23CC2(OC)C(C)C4(O)OCC35C(OCC(C)(C)O)CC(O)C4(C)C3CCC(C)C1(O)C32C(O)C5O

>  <smiles>  (96) 
[H]OC1([H])C([H])([H])C([H])(OC([H])([H])C(O[H])(C([H])([H])[H])C([H])([H])[H])C23C([H])([H])OC4(O[H])C([H])(C([H])([H])[H])C5(OC([H])([H])[H])C([H])([H])C26C([H])([H])OC([H])(C([H])([H])[H])C6([H])C(=C([H])[H])C2(O[H])C([H])(C([H])([H])[H])C([H])([H])C([H])([H])C([H])(C14C([H])([H])[H])C25C([H])(O[H])C3([H])O[H]

$$$$
38:0:0
     RDKit          3D

 26 28  0  0  1  0  0  0  0  0999 V2000
    0.4092   -8.0606    5.0728 C   0  0  0  0  0  0  0  0  0  0  0  0
    1.2312   -7.4046    4.1450 C   0  0  0  0  0  0  0  0  0  0  0  0
    0.6118   -6.9472    2.9702 C   0  0  0  0  0  0  0  0  0  0  0  0
    1.3687   -6.2418    1.9221 C   0  0  0  0  0  0  0  0  0  0  0  0
    0.9678   -6.2602    0.6620 N   0  0  0  0  0  0  0  0  0  0  0  0
    1.9240   -5.4591    0.0299 O   0  0  0  0  0  0  0  0  0  0  0  0
    2.7929   -5.0732    0.9933 C   0  0  0  0  0  0  0  0  0  0  0  0
    3.9396   -4.1913    0.5969 C   0  0  2  0  0  0  0  0  0  0  0  0
    3.5310   -2.9882   -0.2584 C   0  0  0  0  0  0  0  0  0  0  0  0
    4.3859   -3.1326   -1.5162 C   0  0  0  0  0  0  0  0  0  0  0  0
    5.5108   -3.8804   -1.0797 O   0  0  0  0  0  0  0  0  0  0  0  0
    5.0138   -4.9041   -0.2313 C   0  0  0  0  0  0  0  0  0  0  0  0
    2.5112   -5.5550    2.2017 N   0  0  0  0  0  0  0  0  0  0  0  0
   -0.7144   -7.1302    2.7507 N   0  0  0  0  0  0  0  0  0  0  0  0
   -1.3899   -7.7864    3.6927 C   0  0  0  0  0  0  0  0  0  0  0  0
   -0.9039   -8.2336    4.8444 N   0  0  0  0  0  0  0  0  0  0  0  0
    0.8041   -8.4366    6.0029 H   0  0  0  0  0  0  0  0  0  0  0  0
    2.2889   -7.2552    4.3126 H   0  0  0  0  0  0  0  0  0  0  0  0
    4.4146   -3.8126    1.5050 H   0  0  0  0  0  0  0  0  0  0  0  0
    2.4690   -2.9496   -0.5118 H   0  0  0  0  0  0  0  0  0  0  0  0
    3.7709   -2.0647    0.2682 H   0  0  0  0  0  0  0  0  0  0  0  0
    3.8434   -3.6927   -2.2811 H   0  0  0  0  0  0  0  0  0  0  0  0
    4.6802   -2.1719   -1.9389 H   0  0  0  0  0  0  0  0  0  0  0  0
    5.8020   -5.3519    0.3752 H   0  0  0  0  0  0  0  0  0  0  0  0
    4.5886   -5.6940   -0.8509 H   0  0  0  0  0  0  0  0  0  0  0  0
   -2.4475   -7.9239    3.5329 H   0  0  0  0  0  0  0  0  0  0  0  0
  1 16  2  0
  1  2  1  0
  1 17  1  0
  2  3  2  0
  2 18  1  0
  3  4  1  0
  3 14  1  0
  4 13  1  0
  4  5  2  0
  5  6  1  0
  6  7  1  0
  7  8  1  0
  7 13  2  0
  8 12  1  0
  8  9  1  0
  8 19  1  1
  9 10  1  0
  9 20  1  0
  9 21  1  0
 10 11  1  0
 10 22  1  0
 10 23  1  0
 11 12  1  0
 12 24  1  0
 12 25  1  0
 14 15  2  0
 15 16  1  0
 15 26  1  0
M  END
>  <i_m_ct_stereo_status>  (97) 
1

>  <s_m_source_file>  (97) 
/var/tmp/pbs.5076255.sched01/tmpxs4nfypl/40fgi3imsd.sdf

>  <i_m_source_file_index>  (97) 
9

>  <i_lp_mmshare_version>  (97) 
48012

>  <i_f3d_flags>  (97) 
0

>  <s_epik_input>  (97) 
bjFbY0hdbltjSF1bY0hdYzEtYzJub2MobjIpW0NAQEhdM1tDSDJdW0NIMl1PW0NIMl0z

>  <s_epik_cmdline>  (97) 
J2VwaWtfcHl0aG9uJywgJy1waHQnLCAnMi4wJywgJy1waCcsICc3LjAnLCAnLXRuJywgJzgnLCAnLW1hJywgJzIwMCcsICctaW1hZScsICc8aW5maWxlLm1hZT4nLCAnLW9tYWUnLCAnPG91dGZpbGUubWFlPic=

>  <r_lp_tautomer_probability>  (97) 
1

>  <r_epik_Ionization_Penalty>  (97) 
2.99428e-07

>  <r_epik_Ionization_Penalty_Charging>  (97) 
0

>  <r_epik_Ionization_Penalty_Neutral>  (97) 
2.99428e-07

>  <r_epik_State_Penalty>  (97) 
-0

>  <r_epik_Charging_Adjusted_Penalty>  (97) 
0

>  <i_epik_Tot_Q>  (97) 
0

>  <i_epik_Tot_abs_Q>  (97) 
0

>  <s_lp_Force_Field>  (97) 
OPLS3e

>  <r_lp_Energy>  (97) 
16.0688

>  <b_lp_Chiralities_Consistent>  (97) 
1

>  <s_lp_Variant>  (97) 
38:0-1

>  <s_i_glide_gridfile>  (97) 
pfpi4k_grid

>  <i_i_glide_lignum>  (97) 
9

>  <i_i_glide_rotatable_bonds>  (97) 
2

>  <r_i_docking_score>  (97) 
-3.39806

>  <r_i_glide_ligand_efficiency>  (97) 
-0.212379

>  <r_i_glide_ligand_efficiency_sa>  (97) 
-0.535161

>  <r_i_glide_ligand_efficiency_ln>  (97) 
-0.900723

>  <r_i_glide_gscore>  (97) 
-3.39806

>  <r_i_glide_lipo>  (97) 
-0.0224635

>  <r_i_glide_hbond>  (97) 
-0.128136

>  <r_i_glide_metal>  (97) 
-0

>  <r_i_glide_rewards>  (97) 
-1.92128

>  <r_i_glide_evdw>  (97) 
-19.8549

>  <r_i_glide_ecoul>  (97) 
-4.79074

>  <r_i_glide_erotb>  (97) 
0.705669

>  <r_i_glide_esite>  (97) 
-0.320491

>  <r_i_glide_emodel>  (97) 
-30.1038

>  <r_i_glide_energy>  (97) 
-24.6456

>  <r_i_glide_einternal>  (97) 
1.29234

>  <r_i_glide_intrahb_reward>  (97) 
-0

>  <i_i_glide_confnum>  (97) 
5

>  <i_i_glide_posenum>  (97) 
25

>  <r_i_glide_eff_state_penalty>  (97) 
0

>  <ligand_id>  (97) 
38

>  <original_smiles>  (97) 
c1cc(-c2noc(C3CCOC3)n2)ncn1

>  <smiles>  (97) 
[H]c1nc([H])c([H])c(-c2noc(C3([H])C([H])([H])OC([H])([H])C3([H])[H])n2)n1

$$$$
38:0:1
     RDKit          3D

 26 28  0  0  1  0  0  0  0  0999 V2000
    0.0788   -9.4311    2.9256 C   0  0  0  0  0  0  0  0  0  0  0  0
    1.2231   -8.7426    2.4889 C   0  0  0  0  0  0  0  0  0  0  0  0
    1.0401   -7.4192    2.0337 C   0  0  0  0  0  0  0  0  0  0  0  0
    2.1659   -6.5938    1.5344 C   0  0  0  0  0  0  0  0  0  0  0  0
    3.4246   -6.9641    1.7183 N   0  0  0  0  0  0  0  0  0  0  0  0
    4.1428   -5.9203    1.1174 O   0  0  0  0  0  0  0  0  0  0  0  0
    3.2187   -5.0796    0.5866 C   0  0  0  0  0  0  0  0  0  0  0  0
    3.6900   -3.8423   -0.1250 C   0  0  2  0  0  0  0  0  0  0  0  0
    4.8512   -4.0732   -1.0762 C   0  0  0  0  0  0  0  0  0  0  0  0
    5.4147   -2.6695   -1.2412 C   0  0  0  0  0  0  0  0  0  0  0  0
    5.1841   -2.0115    0.0029 O   0  0  0  0  0  0  0  0  0  0  0  0
    4.2306   -2.7339    0.7827 C   0  0  0  0  0  0  0  0  0  0  0  0
    1.9575   -5.4554    0.8170 N   0  0  0  0  0  0  0  0  0  0  0  0
   -0.1905   -6.8406    2.0403 N   0  0  0  0  0  0  0  0  0  0  0  0
   -1.1969   -7.5968    2.4789 C   0  0  0  0  0  0  0  0  0  0  0  0
   -1.1338   -8.8470    2.9138 N   0  0  0  0  0  0  0  0  0  0  0  0
    0.1288  -10.4459    3.2913 H   0  0  0  0  0  0  0  0  0  0  0  0
    2.1931   -9.2205    2.4920 H   0  0  0  0  0  0  0  0  0  0  0  0
    2.8512   -3.4335   -0.6923 H   0  0  0  0  0  0  0  0  0  0  0  0
    5.6122   -4.7027   -0.6113 H   0  0  0  0  0  0  0  0  0  0  0  0
    4.5607   -4.5392   -2.0173 H   0  0  0  0  0  0  0  0  0  0  0  0
    6.4756   -2.6885   -1.4941 H   0  0  0  0  0  0  0  0  0  0  0  0
    4.8836   -2.1356   -2.0310 H   0  0  0  0  0  0  0  0  0  0  0  0
    3.4448   -2.0825    1.1699 H   0  0  0  0  0  0  0  0  0  0  0  0
    4.7655   -3.1531    1.6342 H   0  0  0  0  0  0  0  0  0  0  0  0
   -2.1681   -7.1268    2.4822 H   0  0  0  0  0  0  0  0  0  0  0  0
  1 16  2  0
  1  2  1  0
  1 17  1  0
  2  3  2  0
  2 18  1  0
  3  4  1  0
  3 14  1  0
  4 13  1  0
  4  5  2  0
  5  6  1  0
  6  7  1  0
  7  8  1  0
  7 13  2  0
  8 12  1  0
  8  9  1  0
  8 19  1  6
  9 10  1  0
  9 20  1  0
  9 21  1  0
 10 11  1  0
 10 22  1  0
 10 23  1  0
 11 12  1  0
 12 24  1  0
 12 25  1  0
 14 15  2  0
 15 16  1  0
 15 26  1  0
M  END
>  <i_m_ct_stereo_status>  (98) 
1

>  <s_m_source_file>  (98) 
/var/tmp/pbs.5076255.sched01/tmpxs4nfypl/40fgi3imsd.sdf

>  <i_m_source_file_index>  (98) 
9

>  <i_lp_mmshare_version>  (98) 
48012

>  <i_f3d_flags>  (98) 
0

>  <s_epik_input>  (98) 
bjFbY0hdbltjSF1bY0hdYzEtYzJub2MobjIpW0NAQEhdM1tDSDJdW0NIMl1PW0NIMl0z

>  <s_epik_cmdline>  (98) 
J2VwaWtfcHl0aG9uJywgJy1waHQnLCAnMi4wJywgJy1waCcsICc3LjAnLCAnLXRuJywgJzgnLCAnLW1hJywgJzIwMCcsICctaW1hZScsICc8aW5maWxlLm1hZT4nLCAnLW9tYWUnLCAnPG91dGZpbGUubWFlPic=

>  <r_lp_tautomer_probability>  (98) 
1

>  <r_epik_Ionization_Penalty>  (98) 
2.99428e-07

>  <r_epik_Ionization_Penalty_Charging>  (98) 
0

>  <r_epik_Ionization_Penalty_Neutral>  (98) 
2.99428e-07

>  <r_epik_State_Penalty>  (98) 
-0

>  <r_epik_Charging_Adjusted_Penalty>  (98) 
0

>  <i_epik_Tot_Q>  (98) 
0

>  <i_epik_Tot_abs_Q>  (98) 
0

>  <s_lp_Force_Field>  (98) 
OPLS3e

>  <r_lp_Energy>  (98) 
16.0688

>  <b_lp_Chiralities_Consistent>  (98) 
1

>  <s_lp_Variant>  (98) 
38:0-1

>  <s_i_glide_gridfile>  (98) 
pfpi4k_grid

>  <i_i_glide_lignum>  (98) 
9

>  <i_i_glide_rotatable_bonds>  (98) 
2

>  <r_i_docking_score>  (98) 
-3.25332

>  <r_i_glide_ligand_efficiency>  (98) 
-0.203332

>  <r_i_glide_ligand_efficiency_sa>  (98) 
-0.512365

>  <r_i_glide_ligand_efficiency_ln>  (98) 
-0.862356

>  <r_i_glide_gscore>  (98) 
-3.25332

>  <r_i_glide_lipo>  (98) 
0

>  <r_i_glide_hbond>  (98) 
-0.190542

>  <r_i_glide_metal>  (98) 
-0

>  <r_i_glide_rewards>  (98) 
-1.92128

>  <r_i_glide_evdw>  (98) 
-21.5418

>  <r_i_glide_ecoul>  (98) 
-4.5193

>  <r_i_glide_erotb>  (98) 
0.705669

>  <r_i_glide_esite>  (98) 
-0.0921744

>  <r_i_glide_emodel>  (98) 
-31.5278

>  <r_i_glide_energy>  (98) 
-26.0611

>  <r_i_glide_einternal>  (98) 
0.807282

>  <r_i_glide_intrahb_reward>  (98) 
-0

>  <i_i_glide_confnum>  (98) 
2

>  <i_i_glide_posenum>  (98) 
10

>  <r_i_glide_eff_state_penalty>  (98) 
0

>  <ligand_id>  (98) 
38

>  <original_smiles>  (98) 
c1cc(-c2noc(C3CCOC3)n2)ncn1

>  <smiles>  (98) 
[H]c1nc([H])c([H])c(-c2noc(C3([H])C([H])([H])OC([H])([H])C3([H])[H])n2)n1

$$$$
38:0:2
     RDKit          3D

 26 28  0  0  1  0  0  0  0  0999 V2000
    0.7757   -9.1708    2.6937 C   0  0  0  0  0  0  0  0  0  0  0  0
    1.8165   -8.4212    2.1232 C   0  0  0  0  0  0  0  0  0  0  0  0
    1.4989   -7.1362    1.6329 C   0  0  0  0  0  0  0  0  0  0  0  0
    2.5159   -6.2497    1.0122 C   0  0  0  0  0  0  0  0  0  0  0  0
    3.7838   -6.6232    0.8941 N   0  0  0  0  0  0  0  0  0  0  0  0
    4.3735   -5.5229    0.2522 O   0  0  0  0  0  0  0  0  0  0  0  0
    3.3836   -4.6102    0.0830 C   0  0  0  0  0  0  0  0  0  0  0  0
    3.6874   -3.3161   -0.6048 C   0  0  2  0  0  0  0  0  0  0  0  0
    4.0696   -3.4558   -2.0609 C   0  0  0  0  0  0  0  0  0  0  0  0
    4.8105   -2.1514   -2.3196 C   0  0  0  0  0  0  0  0  0  0  0  0
    5.4439   -1.8082   -1.0893 O   0  0  0  0  0  0  0  0  0  0  0  0
    4.8806   -2.5660   -0.0187 C   0  0  0  0  0  0  0  0  0  0  0  0
    2.1969   -5.0262    0.5125 N   0  0  0  0  0  0  0  0  0  0  0  0
    0.2275   -6.6652    1.7156 N   0  0  0  0  0  0  0  0  0  0  0  0
   -0.6740   -7.4725    2.2766 C   0  0  0  0  0  0  0  0  0  0  0  0
   -0.4752   -8.6835    2.7824 N   0  0  0  0  0  0  0  0  0  0  0  0
    0.9530  -10.1595    3.0894 H   0  0  0  0  0  0  0  0  0  0  0  0
    2.8172   -8.8245    2.0611 H   0  0  0  0  0  0  0  0  0  0  0  0
    2.8110   -2.6674   -0.5347 H   0  0  0  0  0  0  0  0  0  0  0  0
    4.7541   -4.2951   -2.1837 H   0  0  0  0  0  0  0  0  0  0  0  0
    3.2173   -3.6099   -2.7246 H   0  0  0  0  0  0  0  0  0  0  0  0
    5.5429   -2.2569   -3.1187 H   0  0  0  0  0  0  0  0  0  0  0  0
    4.1091   -1.3629   -2.5984 H   0  0  0  0  0  0  0  0  0  0  0  0
    4.6005   -1.9404    0.8279 H   0  0  0  0  0  0  0  0  0  0  0  0
    5.6417   -3.2669    0.3236 H   0  0  0  0  0  0  0  0  0  0  0  0
   -1.6787   -7.0862    2.3561 H   0  0  0  0  0  0  0  0  0  0  0  0
  1 16  2  0
  1  2  1  0
  1 17  1  0
  2  3  2  0
  2 18  1  0
  3  4  1  0
  3 14  1  0
  4 13  1  0
  4  5  2  0
  5  6  1  0
  6  7  1  0
  7  8  1  0
  7 13  2  0
  8 12  1  0
  8  9  1  0
  8 19  1  6
  9 10  1  0
  9 20  1  0
  9 21  1  0
 10 11  1  0
 10 22  1  0
 10 23  1  0
 11 12  1  0
 12 24  1  0
 12 25  1  0
 14 15  2  0
 15 16  1  0
 15 26  1  0
M  END
>  <i_m_ct_stereo_status>  (99) 
1

>  <s_m_source_file>  (99) 
/var/tmp/pbs.5076255.sched01/tmpxs4nfypl/40fgi3imsd.sdf

>  <i_m_source_file_index>  (99) 
9

>  <i_lp_mmshare_version>  (99) 
48012

>  <i_f3d_flags>  (99) 
0

>  <s_epik_input>  (99) 
bjFbY0hdbltjSF1bY0hdYzEtYzJub2MobjIpW0NAQEhdM1tDSDJdW0NIMl1PW0NIMl0z

>  <s_epik_cmdline>  (99) 
J2VwaWtfcHl0aG9uJywgJy1waHQnLCAnMi4wJywgJy1waCcsICc3LjAnLCAnLXRuJywgJzgnLCAnLW1hJywgJzIwMCcsICctaW1hZScsICc8aW5maWxlLm1hZT4nLCAnLW9tYWUnLCAnPG91dGZpbGUubWFlPic=

>  <r_lp_tautomer_probability>  (99) 
1

>  <r_epik_Ionization_Penalty>  (99) 
2.99428e-07

>  <r_epik_Ionization_Penalty_Charging>  (99) 
0

>  <r_epik_Ionization_Penalty_Neutral>  (99) 
2.99428e-07

>  <r_epik_State_Penalty>  (99) 
-0

>  <r_epik_Charging_Adjusted_Penalty>  (99) 
0

>  <i_epik_Tot_Q>  (99) 
0

>  <i_epik_Tot_abs_Q>  (99) 
0

>  <s_lp_Force_Field>  (99) 
OPLS3e

>  <r_lp_Energy>  (99) 
16.0688

>  <b_lp_Chiralities_Consistent>  (99) 
1

>  <s_lp_Variant>  (99) 
38:0-1

>  <s_i_glide_gridfile>  (99) 
pfpi4k_grid

>  <i_i_glide_lignum>  (99) 
9

>  <i_i_glide_rotatable_bonds>  (99) 
2

>  <r_i_docking_score>  (99) 
-3.24561

>  <r_i_glide_ligand_efficiency>  (99) 
-0.202851

>  <r_i_glide_ligand_efficiency_sa>  (99) 
-0.511151

>  <r_i_glide_ligand_efficiency_ln>  (99) 
-0.860313

>  <r_i_glide_gscore>  (99) 
-3.24561

>  <r_i_glide_lipo>  (99) 
-0.09726

>  <r_i_glide_hbond>  (99) 
-0.127773

>  <r_i_glide_metal>  (99) 
-0

>  <r_i_glide_rewards>  (99) 
-1.92128

>  <r_i_glide_evdw>  (99) 
-22.4499

>  <r_i_glide_ecoul>  (99) 
-3.87787

>  <r_i_glide_erotb>  (99) 
0.705669

>  <r_i_glide_esite>  (99) 
-0.100786

>  <r_i_glide_emodel>  (99) 
-32.1319

>  <r_i_glide_energy>  (99) 
-26.3278

>  <r_i_glide_einternal>  (99) 
0.165016

>  <r_i_glide_intrahb_reward>  (99) 
-0

>  <i_i_glide_confnum>  (99) 
2

>  <i_i_glide_posenum>  (99) 
1

>  <r_i_glide_eff_state_penalty>  (99) 
0

>  <ligand_id>  (99) 
38

>  <original_smiles>  (99) 
c1cc(-c2noc(C3CCOC3)n2)ncn1

>  <smiles>  (99) 
[H]c1nc([H])c([H])c(-c2noc(C3([H])C([H])([H])OC([H])([H])C3([H])[H])n2)n1

$$$$
39:0:0
     RDKit          3D

 53 56  0  0  1  0  0  0  0  0999 V2000
    4.4982   -6.0198    3.9839 C   0  0  0  0  0  0  0  0  0  0  0  0
    3.8215   -5.3727    2.7438 C   0  0  2  0  0  0  0  0  0  0  0  0
    4.4496   -6.0478    1.5037 C   0  0  0  0  0  0  0  0  0  0  0  0
    4.1799   -5.3392    0.1776 C   0  0  0  0  0  0  0  0  0  0  0  0
    4.5575   -3.8436    0.2314 C   0  0  2  0  0  0  0  0  0  0  0  0
    3.8287   -3.1218    1.3984 C   0  0  2  0  0  0  0  0  0  0  0  0
    4.2994   -1.6491    1.4763 C   0  0  0  0  0  0  0  0  0  0  0  0
    4.1058   -0.9184    0.1452 C   0  0  0  0  0  0  0  0  0  0  0  0
    4.8298   -1.6404   -1.0094 C   0  0  2  0  0  0  0  0  0  0  0  0
    4.6611   -0.8891   -2.3437 C   0  0  0  0  0  0  0  0  0  0  0  0
    3.2606   -1.0022   -2.9570 C   0  0  1  0  0  0  0  0  0  0  0  0
    3.2672   -0.3735   -4.2230 O   0  0  0  0  0  0  0  0  0  0  0  0
    2.8179   -2.4634   -3.0821 C   0  0  0  0  0  0  0  0  0  0  0  0
    2.9600   -3.1838   -1.7262 C   0  0  0  0  0  0  0  0  0  0  0  0
    4.4082   -3.1281   -1.1570 C   0  0  2  0  0  0  0  0  0  0  0  0
    5.3712   -3.8292   -2.1520 C   0  0  0  0  0  0  0  0  0  0  0  0
    4.0456   -3.8370    2.7689 C   0  0  1  0  0  0  0  0  0  0  0  0
    3.0403   -3.3798    3.8471 C   0  0  0  0  0  0  0  0  0  0  0  0
    1.8313   -4.3236    3.7290 C   0  0  0  0  0  0  0  0  0  0  0  0
    2.2896   -5.5470    2.9068 C   0  0  1  0  0  0  0  0  0  0  0  0
    1.5572   -5.5674    1.6967 O   0  0  0  0  0  0  0  0  0  0  0  0
    4.3846   -7.1050    3.9804 H   0  0  0  0  0  0  0  0  0  0  0  0
    4.0802   -5.6715    4.9309 H   0  0  0  0  0  0  0  0  0  0  0  0
    5.5690   -5.8134    4.0188 H   0  0  0  0  0  0  0  0  0  0  0  0
    5.5317   -6.0689    1.6255 H   0  0  0  0  0  0  0  0  0  0  0  0
    4.1439   -7.0915    1.4378 H   0  0  0  0  0  0  0  0  0  0  0  0
    4.7665   -5.8771   -0.5673 H   0  0  0  0  0  0  0  0  0  0  0  0
    3.1431   -5.4587   -0.1273 H   0  0  0  0  0  0  0  0  0  0  0  0
    5.6176   -3.8057    0.4893 H   0  0  0  0  0  0  0  0  0  0  0  0
    2.7577   -3.1192    1.1923 H   0  0  0  0  0  0  0  0  0  0  0  0
    3.7619   -1.1029    2.2517 H   0  0  0  0  0  0  0  0  0  0  0  0
    5.3522   -1.6054    1.7599 H   0  0  0  0  0  0  0  0  0  0  0  0
    3.0367   -0.8233   -0.0531 H   0  0  0  0  0  0  0  0  0  0  0  0
    4.4770    0.1045    0.2418 H   0  0  0  0  0  0  0  0  0  0  0  0
    5.8900   -1.6090   -0.7552 H   0  0  0  0  0  0  0  0  0  0  0  0
    4.9259    0.1465   -2.2150 H   0  0  0  0  0  0  0  0  0  0  0  0
    5.3914   -1.2565   -3.0538 H   0  0  0  0  0  0  0  0  0  0  0  0
    2.5392   -0.4779   -2.3358 H   0  0  0  0  0  0  0  0  0  0  0  0
    3.0414    0.5386   -4.0943 H   0  0  0  0  0  0  0  0  0  0  0  0
    1.7813   -2.5081   -3.4215 H   0  0  0  0  0  0  0  0  0  0  0  0
    3.3969   -2.9758   -3.8510 H   0  0  0  0  0  0  0  0  0  0  0  0
    2.2599   -2.7369   -1.0279 H   0  0  0  0  0  0  0  0  0  0  0  0
    2.6189   -4.2003   -1.8482 H   0  0  0  0  0  0  0  0  0  0  0  0
    5.4623   -3.3561   -3.1292 H   0  0  0  0  0  0  0  0  0  0  0  0
    5.0424   -4.8440   -2.3714 H   0  0  0  0  0  0  0  0  0  0  0  0
    6.3849   -3.8663   -1.7489 H   0  0  0  0  0  0  0  0  0  0  0  0
    5.0684   -3.6193    3.0910 H   0  0  0  0  0  0  0  0  0  0  0  0
    3.4946   -3.4951    4.8322 H   0  0  0  0  0  0  0  0  0  0  0  0
    2.7574   -2.3301    3.7724 H   0  0  0  0  0  0  0  0  0  0  0  0
    1.4906   -4.6362    4.7163 H   0  0  0  0  0  0  0  0  0  0  0  0
    0.9994   -3.8011    3.2551 H   0  0  0  0  0  0  0  0  0  0  0  0
    2.0605   -6.4806    3.4258 H   0  0  0  0  0  0  0  0  0  0  0  0
    2.0406   -6.0936    1.0705 H   0  0  0  0  0  0  0  0  0  0  0  0
  2  1  1  1
  1 22  1  0
  1 23  1  0
  1 24  1  0
  2 17  1  0
  2 20  1  0
  2  3  1  0
  3  4  1  0
  3 25  1  0
  3 26  1  0
  4  5  1  0
  4 27  1  0
  4 28  1  0
  5 15  1  0
  5  6  1  0
  5 29  1  1
  6  7  1  0
  6 17  1  0
  6 30  1  6
  7  8  1  0
  7 31  1  0
  7 32  1  0
  8  9  1  0
  8 33  1  0
  8 34  1  0
  9 15  1  0
  9 10  1  0
  9 35  1  1
 10 11  1  0
 10 36  1  0
 10 37  1  0
 11 12  1  0
 11 13  1  0
 11 38  1  1
 12 39  1  0
 13 14  1  0
 13 40  1  0
 13 41  1  0
 14 15  1  0
 14 42  1  0
 14 43  1  0
 15 16  1  6
 16 44  1  0
 16 45  1  0
 16 46  1  0
 17 18  1  0
 17 47  1  1
 18 19  1  0
 18 48  1  0
 18 49  1  0
 19 20  1  0
 19 50  1  0
 19 51  1  0
 20 21  1  0
 20 52  1  1
 21 53  1  0
M  END
>  <i_m_ct_stereo_status>  (100) 
1

>  <s_m_source_file>  (100) 
/var/tmp/pbs.5076255.sched01/tmpxs4nfypl/40fgi3imsd.sdf

>  <i_m_source_file_index>  (100) 
10

>  <i_lp_mmshare_version>  (100) 
48012

>  <i_f3d_flags>  (100) 
0

>  <s_epik_input>  (100) 
W09IXVtDQEBIXTFbQ0gyXVtDSDJdW0NAQEhdKFtDQEBdMTJbQ0gzXSlbQ0BASF0zW0NAQEhdKFtDSDJdW0NIMl0yKVtDQF00KFtDSDNdKVtDQEhdKFtDSDJdW0NIMl0zKVtDSDJdW0NAQEhdKFtPSF0pW0NIMl1bQ0gyXTQ=

>  <s_epik_cmdline>  (100) 
J2VwaWtfcHl0aG9uJywgJy1waHQnLCAnMi4wJywgJy1waCcsICc3LjAnLCAnLXRuJywgJzgnLCAnLW1hJywgJzIwMCcsICctaW1hZScsICc8aW5maWxlLm1hZT4nLCAnLW9tYWUnLCAnPG91dGZpbGUubWFlPic=

>  <r_lp_tautomer_probability>  (100) 
1

>  <r_epik_Ionization_Penalty>  (100) 
6.14919e-06

>  <r_epik_Ionization_Penalty_Charging>  (100) 
0

>  <r_epik_Ionization_Penalty_Neutral>  (100) 
6.14919e-06

>  <r_epik_State_Penalty>  (100) 
-0

>  <r_epik_Charging_Adjusted_Penalty>  (100) 
0

>  <i_epik_Tot_Q>  (100) 
0

>  <i_epik_Tot_abs_Q>  (100) 
0

>  <s_lp_Force_Field>  (100) 
OPLS3e

>  <r_lp_Energy>  (100) 
46.9543

>  <b_lp_Chiralities_Consistent>  (100) 
1

>  <s_lp_Variant>  (100) 
39:0-1

>  <s_i_glide_gridfile>  (100) 
pfpi4k_grid

>  <i_i_glide_lignum>  (100) 
10

>  <i_i_glide_rotatable_bonds>  (100) 
2

>  <r_i_docking_score>  (100) 
-3.5351

>  <r_i_glide_ligand_efficiency>  (100) 
-0.168338

>  <r_i_glide_ligand_efficiency_sa>  (100) 
-0.464431

>  <r_i_glide_ligand_efficiency_ln>  (100) 
-0.874045

>  <r_i_glide_gscore>  (100) 
-3.5351

>  <r_i_glide_lipo>  (100) 
-0.231348

>  <r_i_glide_hbond>  (100) 
-0.0837512

>  <r_i_glide_metal>  (100) 
-0

>  <r_i_glide_rewards>  (100) 
-1.41507

>  <r_i_glide_evdw>  (100) 
-23.7769

>  <r_i_glide_ecoul>  (100) 
-4.10721

>  <r_i_glide_erotb>  (100) 
0

>  <r_i_glide_esite>  (100) 
0

>  <r_i_glide_emodel>  (100) 
-33.1334

>  <r_i_glide_energy>  (100) 
-27.8841

>  <r_i_glide_einternal>  (100) 
1.21595

>  <r_i_glide_intrahb_reward>  (100) 
-0

>  <i_i_glide_confnum>  (100) 
2

>  <i_i_glide_posenum>  (100) 
37

>  <r_i_glide_eff_state_penalty>  (100) 
0

>  <ligand_id>  (100) 
39

>  <original_smiles>  (100) 
CC12CCC3C(CCC4CC(O)CCC43C)C1CCC2O

>  <smiles>  (100) 
[H]OC1([H])C([H])([H])C([H])([H])C2(C([H])([H])[H])C([H])(C([H])([H])C([H])([H])C3([H])C4([H])C([H])([H])C([H])([H])C([H])(O[H])C4(C([H])([H])[H])C([H])([H])C([H])([H])C32[H])C1([H])[H]

$$$$
39:0:1
     RDKit          3D

 53 56  0  0  1  0  0  0  0  0999 V2000
    4.5571   -5.9224    4.0196 C   0  0  0  0  0  0  0  0  0  0  0  0
    3.8715   -5.2960    2.7748 C   0  0  2  0  0  0  0  0  0  0  0  0
    4.4866   -5.9882    1.5374 C   0  0  0  0  0  0  0  0  0  0  0  0
    4.2111   -5.3096    0.1925 C   0  0  0  0  0  0  0  0  0  0  0  0
    4.5815   -3.8082    0.2200 C   0  0  2  0  0  0  0  0  0  0  0  0
    3.8546   -3.0679    1.3844 C   0  0  2  0  0  0  0  0  0  0  0  0
    4.3298   -1.5918    1.4306 C   0  0  0  0  0  0  0  0  0  0  0  0
    4.1169   -0.8860    0.0891 C   0  0  0  0  0  0  0  0  0  0  0  0
    4.8351   -1.6202   -1.0632 C   0  0  2  0  0  0  0  0  0  0  0  0
    4.6438   -0.8927   -2.4034 C   0  0  0  0  0  0  0  0  0  0  0  0
    3.2386   -1.0299   -3.0066 C   0  0  1  0  0  0  0  0  0  0  0  0
    3.2442   -0.4777   -4.3038 O   0  0  0  0  0  0  0  0  0  0  0  0
    2.7968   -2.4981   -3.0887 C   0  0  0  0  0  0  0  0  0  0  0  0
    2.9631   -3.1872   -1.7312 C   0  0  0  0  0  0  0  0  0  0  0  0
    4.4162   -3.1176   -1.1806 C   0  0  2  0  0  0  0  0  0  0  0  0
    5.3795   -3.8318   -2.1733 C   0  0  0  0  0  0  0  0  0  0  0  0
    4.0873   -3.7553    2.7635 C   0  0  1  0  0  0  0  0  0  0  0  0
    3.0876   -3.2749    3.8418 C   0  0  0  0  0  0  0  0  0  0  0  0
    1.8849   -4.2270    3.7536 C   0  0  0  0  0  0  0  0  0  0  0  0
    2.3385   -5.4613    2.9540 C   0  0  1  0  0  0  0  0  0  0  0  0
    1.6445   -5.4970    1.7270 O   0  0  0  0  0  0  0  0  0  0  0  0
    4.4530   -7.0084    4.0282 H   0  0  0  0  0  0  0  0  0  0  0  0
    4.1527   -5.5651    4.9657 H   0  0  0  0  0  0  0  0  0  0  0  0
    5.6291   -5.7155    4.0380 H   0  0  0  0  0  0  0  0  0  0  0  0
    5.5712   -6.0059    1.6512 H   0  0  0  0  0  0  0  0  0  0  0  0
    4.1790   -7.0316    1.4879 H   0  0  0  0  0  0  0  0  0  0  0  0
    4.8153   -5.8521   -0.5367 H   0  0  0  0  0  0  0  0  0  0  0  0
    3.1752   -5.4570   -0.1016 H   0  0  0  0  0  0  0  0  0  0  0  0
    5.6417   -3.7572    0.4730 H   0  0  0  0  0  0  0  0  0  0  0  0
    2.7884   -3.0526    1.1830 H   0  0  0  0  0  0  0  0  0  0  0  0
    3.7952   -1.0307    2.2011 H   0  0  0  0  0  0  0  0  0  0  0  0
    5.3828   -1.5379    1.7052 H   0  0  0  0  0  0  0  0  0  0  0  0
    3.0452   -0.7954   -0.0978 H   0  0  0  0  0  0  0  0  0  0  0  0
    4.4899    0.1362    0.1644 H   0  0  0  0  0  0  0  0  0  0  0  0
    5.8949   -1.5811   -0.8185 H   0  0  0  0  0  0  0  0  0  0  0  0
    4.8953    0.1569   -2.2955 H   0  0  0  0  0  0  0  0  0  0  0  0
    5.3667   -1.2751   -3.1216 H   0  0  0  0  0  0  0  0  0  0  0  0
    2.5287   -0.4787   -2.3901 H   0  0  0  0  0  0  0  0  0  0  0  0
    2.3544   -0.4801   -4.6294 H   0  0  0  0  0  0  0  0  0  0  0  0
    1.7549   -2.5530   -3.4155 H   0  0  0  0  0  0  0  0  0  0  0  0
    3.3716   -3.0171   -3.8625 H   0  0  0  0  0  0  0  0  0  0  0  0
    2.2643   -2.7410   -1.0289 H   0  0  0  0  0  0  0  0  0  0  0  0
    2.6329   -4.2155   -1.8403 H   0  0  0  0  0  0  0  0  0  0  0  0
    5.4688   -3.3706   -3.1563 H   0  0  0  0  0  0  0  0  0  0  0  0
    5.0557   -4.8537   -2.3715 H   0  0  0  0  0  0  0  0  0  0  0  0
    6.3975   -3.8617   -1.7752 H   0  0  0  0  0  0  0  0  0  0  0  0
    5.1091   -3.5268    3.0748 H   0  0  0  0  0  0  0  0  0  0  0  0
    3.5511   -3.3686    4.8257 H   0  0  0  0  0  0  0  0  0  0  0  0
    2.8000   -2.2292    3.7428 H   0  0  0  0  0  0  0  0  0  0  0  0
    1.5571   -4.5217    4.7551 H   0  0  0  0  0  0  0  0  0  0  0  0
    1.0385   -3.7136    3.2865 H   0  0  0  0  0  0  0  0  0  0  0  0
    2.0824   -6.3923    3.4732 H   0  0  0  0  0  0  0  0  0  0  0  0
    2.0918   -4.8997    1.1312 H   0  0  0  0  0  0  0  0  0  0  0  0
  2  1  1  1
  1 22  1  0
  1 23  1  0
  1 24  1  0
  2 17  1  0
  2 20  1  0
  2  3  1  0
  3  4  1  0
  3 25  1  0
  3 26  1  0
  4  5  1  0
  4 27  1  0
  4 28  1  0
  5 15  1  0
  5  6  1  0
  5 29  1  1
  6  7  1  0
  6 17  1  0
  6 30  1  6
  7  8  1  0
  7 31  1  0
  7 32  1  0
  8  9  1  0
  8 33  1  0
  8 34  1  0
  9 15  1  0
  9 10  1  0
  9 35  1  1
 10 11  1  0
 10 36  1  0
 10 37  1  0
 11 12  1  0
 11 13  1  0
 11 38  1  1
 12 39  1  0
 13 14  1  0
 13 40  1  0
 13 41  1  0
 14 15  1  0
 14 42  1  0
 14 43  1  0
 15 16  1  6
 16 44  1  0
 16 45  1  0
 16 46  1  0
 17 18  1  0
 17 47  1  1
 18 19  1  0
 18 48  1  0
 18 49  1  0
 19 20  1  0
 19 50  1  0
 19 51  1  0
 20 21  1  0
 20 52  1  1
 21 53  1  0
M  END
>  <i_m_ct_stereo_status>  (101) 
1

>  <s_m_source_file>  (101) 
/var/tmp/pbs.5076255.sched01/tmpxs4nfypl/40fgi3imsd.sdf

>  <i_m_source_file_index>  (101) 
10

>  <i_lp_mmshare_version>  (101) 
48012

>  <i_f3d_flags>  (101) 
0

>  <s_epik_input>  (101) 
W09IXVtDQEBIXTFbQ0gyXVtDSDJdW0NAQEhdKFtDQEBdMTJbQ0gzXSlbQ0BASF0zW0NAQEhdKFtDSDJdW0NIMl0yKVtDQF00KFtDSDNdKVtDQEhdKFtDSDJdW0NIMl0zKVtDSDJdW0NAQEhdKFtPSF0pW0NIMl1bQ0gyXTQ=

>  <s_epik_cmdline>  (101) 
J2VwaWtfcHl0aG9uJywgJy1waHQnLCAnMi4wJywgJy1waCcsICc3LjAnLCAnLXRuJywgJzgnLCAnLW1hJywgJzIwMCcsICctaW1hZScsICc8aW5maWxlLm1hZT4nLCAnLW9tYWUnLCAnPG91dGZpbGUubWFlPic=

>  <r_lp_tautomer_probability>  (101) 
1

>  <r_epik_Ionization_Penalty>  (101) 
6.14919e-06

>  <r_epik_Ionization_Penalty_Charging>  (101) 
0

>  <r_epik_Ionization_Penalty_Neutral>  (101) 
6.14919e-06

>  <r_epik_State_Penalty>  (101) 
-0

>  <r_epik_Charging_Adjusted_Penalty>  (101) 
0

>  <i_epik_Tot_Q>  (101) 
0

>  <i_epik_Tot_abs_Q>  (101) 
0

>  <s_lp_Force_Field>  (101) 
OPLS3e

>  <r_lp_Energy>  (101) 
46.9543

>  <b_lp_Chiralities_Consistent>  (101) 
1

>  <s_lp_Variant>  (101) 
39:0-1

>  <s_i_glide_gridfile>  (101) 
pfpi4k_grid

>  <i_i_glide_lignum>  (101) 
10

>  <i_i_glide_rotatable_bonds>  (101) 
2

>  <r_i_docking_score>  (101) 
-3.47859

>  <r_i_glide_ligand_efficiency>  (101) 
-0.165647

>  <r_i_glide_ligand_efficiency_sa>  (101) 
-0.457008

>  <r_i_glide_ligand_efficiency_ln>  (101) 
-0.860075

>  <r_i_glide_gscore>  (101) 
-3.47859

>  <r_i_glide_lipo>  (101) 
-0.239562

>  <r_i_glide_hbond>  (101) 
-0.065118

>  <r_i_glide_metal>  (101) 
-0

>  <r_i_glide_rewards>  (101) 
-1.41507

>  <r_i_glide_evdw>  (101) 
-23.9402

>  <r_i_glide_ecoul>  (101) 
-3.74555

>  <r_i_glide_erotb>  (101) 
0

>  <r_i_glide_esite>  (101) 
0

>  <r_i_glide_emodel>  (101) 
-33.2945

>  <r_i_glide_energy>  (101) 
-27.6857

>  <r_i_glide_einternal>  (101) 
0.73863

>  <r_i_glide_intrahb_reward>  (101) 
-0

>  <i_i_glide_confnum>  (101) 
2

>  <i_i_glide_posenum>  (101) 
1

>  <r_i_glide_eff_state_penalty>  (101) 
0

>  <ligand_id>  (101) 
39

>  <original_smiles>  (101) 
CC12CCC3C(CCC4CC(O)CCC43C)C1CCC2O

>  <smiles>  (101) 
[H]OC1([H])C([H])([H])C([H])([H])C2(C([H])([H])[H])C([H])(C([H])([H])C([H])([H])C3([H])C4([H])C([H])([H])C([H])([H])C([H])(O[H])C4(C([H])([H])[H])C([H])([H])C([H])([H])C32[H])C1([H])[H]

$$$$
39:0:2
     RDKit          3D

 53 56  0  0  1  0  0  0  0  0999 V2000
    4.4869   -5.9548    4.0303 C   0  0  0  0  0  0  0  0  0  0  0  0
    3.8027   -5.3176    2.7821 C   0  0  2  0  0  0  0  0  0  0  0  0
    4.4350   -6.0060    1.5442 C   0  0  0  0  0  0  0  0  0  0  0  0
    4.1786   -5.3217    0.2068 C   0  0  0  0  0  0  0  0  0  0  0  0
    4.5509   -3.8258    0.2484 C   0  0  2  0  0  0  0  0  0  0  0  0
    3.8191   -3.0854    1.4009 C   0  0  2  0  0  0  0  0  0  0  0  0
    4.2931   -1.6138    1.4644 C   0  0  0  0  0  0  0  0  0  0  0  0
    4.1009   -0.8979    0.1229 C   0  0  0  0  0  0  0  0  0  0  0  0
    4.8197   -1.6296   -1.0273 C   0  0  2  0  0  0  0  0  0  0  0  0
    4.6329   -0.8965   -2.3772 C   0  0  0  0  0  0  0  0  0  0  0  0
    3.2226   -1.0230   -2.9633 C   0  0  1  0  0  0  0  0  0  0  0  0
    3.2414   -0.4560   -4.2680 O   0  0  0  0  0  0  0  0  0  0  0  0
    2.7921   -2.4857   -3.0753 C   0  0  0  0  0  0  0  0  0  0  0  0
    2.9485   -3.1927   -1.7140 C   0  0  0  0  0  0  0  0  0  0  0  0
    4.4067   -3.1230   -1.1551 C   0  0  2  0  0  0  0  0  0  0  0  0
    5.3866   -3.8404   -2.1431 C   0  0  0  0  0  0  0  0  0  0  0  0
    4.0262   -3.7847    2.7830 C   0  0  1  0  0  0  0  0  0  0  0  0
    3.0205   -3.3055    3.8471 C   0  0  0  0  0  0  0  0  0  0  0  0
    1.8074   -4.2509    3.7437 C   0  0  0  0  0  0  0  0  0  0  0  0
    2.2698   -5.4995    2.9540 C   0  0  1  0  0  0  0  0  0  0  0  0
    1.5383   -5.5739    1.7462 O   0  0  0  0  0  0  0  0  0  0  0  0
    4.3790   -7.0396    4.0342 H   0  0  0  0  0  0  0  0  0  0  0  0
    4.0717   -5.6012    4.9738 H   0  0  0  0  0  0  0  0  0  0  0  0
    5.5519   -5.7497    4.0588 H   0  0  0  0  0  0  0  0  0  0  0  0
    5.5136   -6.0278    1.6768 H   0  0  0  0  0  0  0  0  0  0  0  0
    4.1290   -7.0574    1.4935 H   0  0  0  0  0  0  0  0  0  0  0  0
    4.7891   -5.8651   -0.5141 H   0  0  0  0  0  0  0  0  0  0  0  0
    3.1429   -5.4517   -0.0988 H   0  0  0  0  0  0  0  0  0  0  0  0
    5.6191   -3.7755    0.5099 H   0  0  0  0  0  0  0  0  0  0  0  0
    2.7510   -3.0835    1.1919 H   0  0  0  0  0  0  0  0  0  0  0  0
    3.7551   -1.0542    2.2338 H   0  0  0  0  0  0  0  0  0  0  0  0
    5.3447   -1.5633    1.7505 H   0  0  0  0  0  0  0  0  0  0  0  0
    3.0259   -0.8030   -0.0685 H   0  0  0  0  0  0  0  0  0  0  0  0
    4.4715    0.1217    0.2104 H   0  0  0  0  0  0  0  0  0  0  0  0
    5.8790   -1.5869   -0.7825 H   0  0  0  0  0  0  0  0  0  0  0  0
    4.8998    0.1444   -2.2606 H   0  0  0  0  0  0  0  0  0  0  0  0
    5.3167   -1.2896   -3.1101 H   0  0  0  0  0  0  0  0  0  0  0  0
    2.5042   -0.4698   -2.3545 H   0  0  0  0  0  0  0  0  0  0  0  0
    2.3769   -0.3874   -4.5845 H   0  0  0  0  0  0  0  0  0  0  0  0
    1.7606   -2.5484   -3.4099 H   0  0  0  0  0  0  0  0  0  0  0  0
    3.3835   -2.9953   -3.8439 H   0  0  0  0  0  0  0  0  0  0  0  0
    2.2591   -2.7460   -1.0200 H   0  0  0  0  0  0  0  0  0  0  0  0
    2.6248   -4.2133   -1.8375 H   0  0  0  0  0  0  0  0  0  0  0  0
    5.4858   -3.3756   -3.1203 H   0  0  0  0  0  0  0  0  0  0  0  0
    5.0536   -4.8545   -2.3481 H   0  0  0  0  0  0  0  0  0  0  0  0
    6.3861   -3.8852   -1.7287 H   0  0  0  0  0  0  0  0  0  0  0  0
    5.0481   -3.5589    3.1056 H   0  0  0  0  0  0  0  0  0  0  0  0
    3.4722   -3.4045    4.8404 H   0  0  0  0  0  0  0  0  0  0  0  0
    2.7369   -2.2570    3.7547 H   0  0  0  0  0  0  0  0  0  0  0  0
    1.4675   -4.5432    4.7381 H   0  0  0  0  0  0  0  0  0  0  0  0
    0.9832   -3.7363    3.2606 H   0  0  0  0  0  0  0  0  0  0  0  0
    2.0542   -6.4125    3.5114 H   0  0  0  0  0  0  0  0  0  0  0  0
    2.0460   -6.0365    1.1041 H   0  0  0  0  0  0  0  0  0  0  0  0
  2  1  1  1
  1 22  1  0
  1 23  1  0
  1 24  1  0
  2 17  1  0
  2 20  1  0
  2  3  1  0
  3  4  1  0
  3 25  1  0
  3 26  1  0
  4  5  1  0
  4 27  1  0
  4 28  1  0
  5 15  1  0
  5  6  1  0
  5 29  1  1
  6  7  1  0
  6 17  1  0
  6 30  1  6
  7  8  1  0
  7 31  1  0
  7 32  1  0
  8  9  1  0
  8 33  1  0
  8 34  1  0
  9 15  1  0
  9 10  1  0
  9 35  1  1
 10 11  1  0
 10 36  1  0
 10 37  1  0
 11 12  1  0
 11 13  1  0
 11 38  1  1
 12 39  1  0
 13 14  1  0
 13 40  1  0
 13 41  1  0
 14 15  1  0
 14 42  1  0
 14 43  1  0
 15 16  1  6
 16 44  1  0
 16 45  1  0
 16 46  1  0
 17 18  1  0
 17 47  1  1
 18 19  1  0
 18 48  1  0
 18 49  1  0
 19 20  1  0
 19 50  1  0
 19 51  1  0
 20 21  1  0
 20 52  1  1
 21 53  1  0
M  END
>  <i_m_ct_stereo_status>  (102) 
1

>  <s_m_source_file>  (102) 
/var/tmp/pbs.5076255.sched01/tmpxs4nfypl/40fgi3imsd.sdf

>  <i_m_source_file_index>  (102) 
10

>  <i_lp_mmshare_version>  (102) 
48012

>  <i_f3d_flags>  (102) 
0

>  <s_epik_input>  (102) 
W09IXVtDQEBIXTFbQ0gyXVtDSDJdW0NAQEhdKFtDQEBdMTJbQ0gzXSlbQ0BASF0zW0NAQEhdKFtDSDJdW0NIMl0yKVtDQF00KFtDSDNdKVtDQEhdKFtDSDJdW0NIMl0zKVtDSDJdW0NAQEhdKFtPSF0pW0NIMl1bQ0gyXTQ=

>  <s_epik_cmdline>  (102) 
J2VwaWtfcHl0aG9uJywgJy1waHQnLCAnMi4wJywgJy1waCcsICc3LjAnLCAnLXRuJywgJzgnLCAnLW1hJywgJzIwMCcsICctaW1hZScsICc8aW5maWxlLm1hZT4nLCAnLW9tYWUnLCAnPG91dGZpbGUubWFlPic=

>  <r_lp_tautomer_probability>  (102) 
1

>  <r_epik_Ionization_Penalty>  (102) 
6.14919e-06

>  <r_epik_Ionization_Penalty_Charging>  (102) 
0

>  <r_epik_Ionization_Penalty_Neutral>  (102) 
6.14919e-06

>  <r_epik_State_Penalty>  (102) 
-0

>  <r_epik_Charging_Adjusted_Penalty>  (102) 
0

>  <i_epik_Tot_Q>  (102) 
0

>  <i_epik_Tot_abs_Q>  (102) 
0

>  <s_lp_Force_Field>  (102) 
OPLS3e

>  <r_lp_Energy>  (102) 
46.9543

>  <b_lp_Chiralities_Consistent>  (102) 
1

>  <s_lp_Variant>  (102) 
39:0-1

>  <s_i_glide_gridfile>  (102) 
pfpi4k_grid

>  <i_i_glide_lignum>  (102) 
10

>  <i_i_glide_rotatable_bonds>  (102) 
2

>  <r_i_docking_score>  (102) 
-3.41987

>  <r_i_glide_ligand_efficiency>  (102) 
-0.162851

>  <r_i_glide_ligand_efficiency_sa>  (102) 
-0.449293

>  <r_i_glide_ligand_efficiency_ln>  (102) 
-0.845556

>  <r_i_glide_gscore>  (102) 
-3.41987

>  <r_i_glide_lipo>  (102) 
-0.232763

>  <r_i_glide_hbond>  (102) 
-0.0800258

>  <r_i_glide_metal>  (102) 
-0

>  <r_i_glide_rewards>  (102) 
-1.41507

>  <r_i_glide_evdw>  (102) 
-23.8022

>  <r_i_glide_ecoul>  (102) 
-3.34601

>  <r_i_glide_erotb>  (102) 
0

>  <r_i_glide_esite>  (102) 
0

>  <r_i_glide_emodel>  (102) 
-32.7868

>  <r_i_glide_energy>  (102) 
-27.1482

>  <r_i_glide_einternal>  (102) 
0.738449

>  <r_i_glide_intrahb_reward>  (102) 
-0

>  <i_i_glide_confnum>  (102) 
2

>  <i_i_glide_posenum>  (102) 
25

>  <r_i_glide_eff_state_penalty>  (102) 
0

>  <ligand_id>  (102) 
39

>  <original_smiles>  (102) 
CC12CCC3C(CCC4CC(O)CCC43C)C1CCC2O

>  <smiles>  (102) 
[H]OC1([H])C([H])([H])C([H])([H])C2(C([H])([H])[H])C([H])(C([H])([H])C([H])([H])C3([H])C4([H])C([H])([H])C([H])([H])C([H])(O[H])C4(C([H])([H])[H])C([H])([H])C([H])([H])C32[H])C1([H])[H]

$$$$
40:0:0
     RDKit          3D

 50 53  0  0  1  0  0  0  0  0999 V2000
    3.3693   -2.8428   -2.8658 C   0  0  0  0  0  0  0  0  0  0  0  0
    4.3484   -2.7190   -1.6689 C   0  0  0  0  0  0  0  0  0  0  0  0
    5.7628   -2.7399   -2.3063 C   0  0  0  0  0  0  0  0  0  0  0  0
    4.0848   -1.3590   -0.9822 C   0  0  0  0  0  0  0  0  0  0  0  0
    4.8451   -1.1695    0.3378 C   0  0  0  0  0  0  0  0  0  0  0  0
    4.6076   -2.3324    1.3196 C   0  0  0  0  0  0  0  0  0  0  0  0
    4.9476   -3.7366    0.7381 C   0  0  2  0  0  0  0  0  0  0  0  0
    6.4817   -3.8445    0.5017 C   0  0  0  0  0  0  0  0  0  0  0  0
    4.1526   -3.8873   -0.6223 C   0  0  1  0  0  0  0  0  0  0  0  0
    2.6475   -4.1258   -0.3250 C   0  0  0  0  0  0  0  0  0  0  0  0
    2.4072   -5.3513    0.5447 C   0  0  0  0  0  0  0  0  0  0  0  0
    3.0795   -5.2424    1.8991 C   0  0  2  0  0  0  0  0  0  0  0  0
    2.3566   -4.4599    3.0113 C   0  0  0  0  0  0  0  0  0  0  0  0
    2.9837   -5.4574    3.9844 C   0  0  2  0  0  0  0  0  0  0  0  0
    2.2172   -5.7294    5.1357 O   0  0  0  0  0  0  0  0  0  0  0  0
    4.4300   -5.1649    4.3633 C   0  0  0  0  0  0  0  0  0  0  0  0
    5.3190   -4.8955    3.1171 C   0  0  1  0  0  0  0  0  0  0  0  0
    6.3861   -5.8267    3.1336 O   0  0  0  0  0  0  0  0  0  0  0  0
    4.5884   -4.9334    1.7199 C   0  0  2  0  0  0  0  0  0  0  0  0
    2.8092   -6.4378    2.8281 C   0  0  0  0  0  0  0  0  0  0  0  0
    3.6020   -2.1251   -3.6542 H   0  0  0  0  0  0  0  0  0  0  0  0
    2.3376   -2.6331   -2.5814 H   0  0  0  0  0  0  0  0  0  0  0  0
    3.4084   -3.8413   -3.3092 H   0  0  0  0  0  0  0  0  0  0  0  0
    6.4553   -2.0754   -1.8040 H   0  0  0  0  0  0  0  0  0  0  0  0
    5.7406   -2.4010   -3.3387 H   0  0  0  0  0  0  0  0  0  0  0  0
    6.1868   -3.7445   -2.3257 H   0  0  0  0  0  0  0  0  0  0  0  0
    4.3232   -0.5439   -1.6657 H   0  0  0  0  0  0  0  0  0  0  0  0
    3.0170   -1.2620   -0.7729 H   0  0  0  0  0  0  0  0  0  0  0  0
    5.9097   -1.0265    0.1506 H   0  0  0  0  0  0  0  0  0  0  0  0
    4.5070   -0.2402    0.7984 H   0  0  0  0  0  0  0  0  0  0  0  0
    5.1651   -2.1334    2.2314 H   0  0  0  0  0  0  0  0  0  0  0  0
    3.5582   -2.2907    1.6039 H   0  0  0  0  0  0  0  0  0  0  0  0
    6.7222   -4.7095   -0.1152 H   0  0  0  0  0  0  0  0  0  0  0  0
    7.0422   -3.9487    1.4287 H   0  0  0  0  0  0  0  0  0  0  0  0
    6.9126   -2.9689    0.0366 H   0  0  0  0  0  0  0  0  0  0  0  0
    4.4989   -4.8010   -1.1089 H   0  0  0  0  0  0  0  0  0  0  0  0
    2.1904   -3.2448    0.1230 H   0  0  0  0  0  0  0  0  0  0  0  0
    2.0896   -4.3095   -1.2416 H   0  0  0  0  0  0  0  0  0  0  0  0
    1.3337   -5.4708    0.6816 H   0  0  0  0  0  0  0  0  0  0  0  0
    2.7492   -6.2478    0.0262 H   0  0  0  0  0  0  0  0  0  0  0  0
    2.6903   -3.4381    3.1788 H   0  0  0  0  0  0  0  0  0  0  0  0
    1.2663   -4.5192    2.9701 H   0  0  0  0  0  0  0  0  0  0  0  0
    2.5465   -6.5345    5.5070 H   0  0  0  0  0  0  0  0  0  0  0  0
    4.4568   -4.2935    5.0179 H   0  0  0  0  0  0  0  0  0  0  0  0
    4.8315   -5.9798    4.9681 H   0  0  0  0  0  0  0  0  0  0  0  0
    5.7662   -3.9171    3.2809 H   0  0  0  0  0  0  0  0  0  0  0  0
    6.0279   -6.6992    3.0323 H   0  0  0  0  0  0  0  0  0  0  0  0
    4.9824   -5.8151    1.2081 H   0  0  0  0  0  0  0  0  0  0  0  0
    1.8016   -6.8553    2.7434 H   0  0  0  0  0  0  0  0  0  0  0  0
    3.5675   -7.2229    2.7726 H   0  0  0  0  0  0  0  0  0  0  0  0
  1  2  1  0
  1 21  1  0
  1 22  1  0
  1 23  1  0
  2  9  1  0
  2  3  1  0
  2  4  1  0
  3 24  1  0
  3 25  1  0
  3 26  1  0
  4  5  1  0
  4 27  1  0
  4 28  1  0
  5  6  1  0
  5 29  1  0
  5 30  1  0
  6  7  1  0
  6 31  1  0
  6 32  1  0
  7 19  1  0
  7  8  1  6
  7  9  1  0
  8 33  1  0
  8 34  1  0
  8 35  1  0
  9 10  1  0
  9 36  1  6
 10 11  1  0
 10 37  1  0
 10 38  1  0
 12 11  1  6
 11 39  1  0
 11 40  1  0
 12 19  1  0
 12 20  1  0
 12 13  1  0
 13 14  1  0
 13 41  1  0
 13 42  1  0
 14 15  1  1
 14 16  1  0
 14 20  1  0
 15 43  1  0
 16 17  1  0
 16 44  1  0
 16 45  1  0
 17 18  1  0
 17 19  1  0
 17 46  1  1
 18 47  1  0
 19 48  1  6
 20 49  1  0
 20 50  1  0
M  END
>  <i_m_ct_stereo_status>  (103) 
1

>  <s_m_source_file>  (103) 
/var/tmp/pbs.5076255.sched01/tmpxs4nfypl/40fgi3imsd.sdf

>  <i_m_source_file_index>  (103) 
11

>  <i_lp_mmshare_version>  (103) 
48012

>  <i_f3d_flags>  (103) 
0

>  <s_epik_input>  (103) 
W0NIMl0xW0NIMl1bQ0gyXUMoW0NIM10pKFtDSDNdKVtDQEhdKFtDSDJdW0NIMl0yKVtDQF0xKFtDSDNdKVtDQEhdKFtDQF0yMzQpW0NASF0oW09IXSlbQ0gyXVtDQF0oW0NIMl0zKShbT0hdKVtDSDJdNA==

>  <s_epik_cmdline>  (103) 
J2VwaWtfcHl0aG9uJywgJy1waHQnLCAnMi4wJywgJy1waCcsICc3LjAnLCAnLXRuJywgJzgnLCAnLW1hJywgJzIwMCcsICctaW1hZScsICc8aW5maWxlLm1hZT4nLCAnLW9tYWUnLCAnPG91dGZpbGUubWFlPic=

>  <r_lp_tautomer_probability>  (103) 
1

>  <r_epik_Ionization_Penalty>  (103) 
4.38016e-06

>  <r_epik_Ionization_Penalty_Charging>  (103) 
0

>  <r_epik_Ionization_Penalty_Neutral>  (103) 
4.38016e-06

>  <r_epik_State_Penalty>  (103) 
-0

>  <r_epik_Charging_Adjusted_Penalty>  (103) 
0

>  <i_epik_Tot_Q>  (103) 
0

>  <i_epik_Tot_abs_Q>  (103) 
0

>  <s_lp_Force_Field>  (103) 
OPLS3e

>  <r_lp_Energy>  (103) 
63.6943

>  <b_lp_Chiralities_Consistent>  (103) 
1

>  <s_lp_Variant>  (103) 
40:0-1

>  <s_i_glide_gridfile>  (103) 
pfpi4k_grid

>  <i_i_glide_lignum>  (103) 
11

>  <i_i_glide_rotatable_bonds>  (103) 
2

>  <r_i_docking_score>  (103) 
-2.88574

>  <r_i_glide_ligand_efficiency>  (103) 
-0.144287

>  <r_i_glide_ligand_efficiency_sa>  (103) 
-0.391655

>  <r_i_glide_ligand_efficiency_ln>  (103) 
-0.722205

>  <r_i_glide_gscore>  (103) 
-2.88574

>  <r_i_glide_lipo>  (103) 
-0.309978

>  <r_i_glide_hbond>  (103) 
0

>  <r_i_glide_metal>  (103) 
-0

>  <r_i_glide_rewards>  (103) 
-1.51071

>  <r_i_glide_evdw>  (103) 
-22.0617

>  <r_i_glide_ecoul>  (103) 
0.253562

>  <r_i_glide_erotb>  (103) 
0

>  <r_i_glide_esite>  (103) 
0

>  <r_i_glide_emodel>  (103) 
-25.2503

>  <r_i_glide_energy>  (103) 
-21.8082

>  <r_i_glide_einternal>  (103) 
0.80002

>  <r_i_glide_intrahb_reward>  (103) 
-0

>  <i_i_glide_confnum>  (103) 
2

>  <i_i_glide_posenum>  (103) 
10

>  <r_i_glide_eff_state_penalty>  (103) 
0

>  <ligand_id>  (103) 
40

>  <original_smiles>  (103) 
CC1(C)CCCC2(C)C1CCC13CC(O)(CC(O)C12)C3

>  <smiles>  (103) 
[H]OC1([H])C([H])([H])C2(O[H])C([H])([H])C3(C([H])([H])C([H])([H])C4([H])C(C([H])([H])[H])(C([H])([H])[H])C([H])([H])C([H])([H])C([H])([H])C4(C([H])([H])[H])C13[H])C2([H])[H]

$$$$
40:0:1
     RDKit          3D

 50 53  0  0  1  0  0  0  0  0999 V2000
    2.6614   -2.7564   -3.0560 C   0  0  0  0  0  0  0  0  0  0  0  0
    3.8576   -2.5320   -2.0872 C   0  0  0  0  0  0  0  0  0  0  0  0
    5.0908   -2.4706   -2.9974 C   0  0  0  0  0  0  0  0  0  0  0  0
    3.6736   -1.1710   -1.3952 C   0  0  0  0  0  0  0  0  0  0  0  0
    4.6495   -0.8759   -0.2510 C   0  0  0  0  0  0  0  0  0  0  0  0
    4.6840   -2.0090    0.7851 C   0  0  0  0  0  0  0  0  0  0  0  0
    5.0018   -3.4029    0.1696 C   0  0  2  0  0  0  0  0  0  0  0  0
    6.4557   -3.3929   -0.3628 C   0  0  0  0  0  0  0  0  0  0  0  0
    3.9695   -3.6648   -0.9977 C   0  0  1  0  0  0  0  0  0  0  0  0
    2.5786   -3.9978   -0.4065 C   0  0  0  0  0  0  0  0  0  0  0  0
    2.6007   -5.2017    0.5245 C   0  0  0  0  0  0  0  0  0  0  0  0
    3.5225   -5.0020    1.7091 C   0  0  2  0  0  0  0  0  0  0  0  0
    2.9888   -4.2320    2.9334 C   0  0  0  0  0  0  0  0  0  0  0  0
    3.8749   -5.1562    3.7651 C   0  0  2  0  0  0  0  0  0  0  0  0
    3.3983   -5.4502    5.0557 O   0  0  0  0  0  0  0  0  0  0  0  0
    5.3397   -4.7504    3.8352 C   0  0  0  0  0  0  0  0  0  0  0  0
    5.9241   -4.4713    2.4231 C   0  0  1  0  0  0  0  0  0  0  0  0
    7.0367   -5.3291    2.2235 O   0  0  0  0  0  0  0  0  0  0  0  0
    4.9326   -4.5975    1.2137 C   0  0  2  0  0  0  0  0  0  0  0  0
    3.5482   -6.1852    2.6915 C   0  0  0  0  0  0  0  0  0  0  0  0
    2.6719   -2.0414   -3.8821 H   0  0  0  0  0  0  0  0  0  0  0  0
    1.6951   -2.6152   -2.5674 H   0  0  0  0  0  0  0  0  0  0  0  0
    2.6847   -3.7601   -3.4918 H   0  0  0  0  0  0  0  0  0  0  0  0
    5.8125   -1.7511   -2.6269 H   0  0  0  0  0  0  0  0  0  0  0  0
    4.8368   -2.1237   -3.9957 H   0  0  0  0  0  0  0  0  0  0  0  0
    5.5818   -3.4383   -3.0998 H   0  0  0  0  0  0  0  0  0  0  0  0
    3.7070   -0.3737   -2.1386 H   0  0  0  0  0  0  0  0  0  0  0  0
    2.6771   -1.1491   -0.9664 H   0  0  0  0  0  0  0  0  0  0  0  0
    5.6405   -0.6545   -0.6366 H   0  0  0  0  0  0  0  0  0  0  0  0
    4.3234    0.0392    0.2439 H   0  0  0  0  0  0  0  0  0  0  0  0
    5.3953   -1.7398    1.5616 H   0  0  0  0  0  0  0  0  0  0  0  0
    3.7116   -2.0275    1.2719 H   0  0  0  0  0  0  0  0  0  0  0  0
    6.6126   -4.2527   -1.0118 H   0  0  0  0  0  0  0  0  0  0  0  0
    7.2053   -3.4385    0.4204 H   0  0  0  0  0  0  0  0  0  0  0  0
    6.7200   -2.5186   -0.9314 H   0  0  0  0  0  0  0  0  0  0  0  0
    4.2876   -4.5684   -1.5198 H   0  0  0  0  0  0  0  0  0  0  0  0
    2.1524   -3.1366    0.1071 H   0  0  0  0  0  0  0  0  0  0  0  0
    1.8737   -4.2634   -1.1896 H   0  0  0  0  0  0  0  0  0  0  0  0
    1.5880   -5.3860    0.8836 H   0  0  0  0  0  0  0  0  0  0  0  0
    2.9014   -6.0898   -0.0354 H   0  0  0  0  0  0  0  0  0  0  0  0
    3.2733   -3.1848    3.0093 H   0  0  0  0  0  0  0  0  0  0  0  0
    1.9200   -4.3631    3.1099 H   0  0  0  0  0  0  0  0  0  0  0  0
    2.5191   -5.7865    4.9584 H   0  0  0  0  0  0  0  0  0  0  0  0
    5.4292   -3.8524    4.4525 H   0  0  0  0  0  0  0  0  0  0  0  0
    5.9117   -5.5147    4.3657 H   0  0  0  0  0  0  0  0  0  0  0  0
    6.2941   -3.4528    2.4703 H   0  0  0  0  0  0  0  0  0  0  0  0
    6.7616   -6.2214    2.3718 H   0  0  0  0  0  0  0  0  0  0  0  0
    5.2767   -5.4623    0.6421 H   0  0  0  0  0  0  0  0  0  0  0  0
    2.5834   -6.6777    2.8208 H   0  0  0  0  0  0  0  0  0  0  0  0
    4.3447   -6.9063    2.5032 H   0  0  0  0  0  0  0  0  0  0  0  0
  1  2  1  0
  1 21  1  0
  1 22  1  0
  1 23  1  0
  2  9  1  0
  2  3  1  0
  2  4  1  0
  3 24  1  0
  3 25  1  0
  3 26  1  0
  4  5  1  0
  4 27  1  0
  4 28  1  0
  5  6  1  0
  5 29  1  0
  5 30  1  0
  6  7  1  0
  6 31  1  0
  6 32  1  0
  7 19  1  0
  7  8  1  6
  7  9  1  0
  8 33  1  0
  8 34  1  0
  8 35  1  0
  9 10  1  0
  9 36  1  6
 10 11  1  0
 10 37  1  0
 10 38  1  0
 12 11  1  6
 11 39  1  0
 11 40  1  0
 12 19  1  0
 12 20  1  0
 12 13  1  0
 13 14  1  0
 13 41  1  0
 13 42  1  0
 14 15  1  1
 14 16  1  0
 14 20  1  0
 15 43  1  0
 16 17  1  0
 16 44  1  0
 16 45  1  0
 17 18  1  0
 17 19  1  0
 17 46  1  1
 18 47  1  0
 19 48  1  6
 20 49  1  0
 20 50  1  0
M  END
>  <i_m_ct_stereo_status>  (104) 
1

>  <s_m_source_file>  (104) 
/var/tmp/pbs.5076255.sched01/tmpxs4nfypl/40fgi3imsd.sdf

>  <i_m_source_file_index>  (104) 
11

>  <i_lp_mmshare_version>  (104) 
48012

>  <i_f3d_flags>  (104) 
0

>  <s_epik_input>  (104) 
W0NIMl0xW0NIMl1bQ0gyXUMoW0NIM10pKFtDSDNdKVtDQEhdKFtDSDJdW0NIMl0yKVtDQF0xKFtDSDNdKVtDQEhdKFtDQF0yMzQpW0NASF0oW09IXSlbQ0gyXVtDQF0oW0NIMl0zKShbT0hdKVtDSDJdNA==

>  <s_epik_cmdline>  (104) 
J2VwaWtfcHl0aG9uJywgJy1waHQnLCAnMi4wJywgJy1waCcsICc3LjAnLCAnLXRuJywgJzgnLCAnLW1hJywgJzIwMCcsICctaW1hZScsICc8aW5maWxlLm1hZT4nLCAnLW9tYWUnLCAnPG91dGZpbGUubWFlPic=

>  <r_lp_tautomer_probability>  (104) 
1

>  <r_epik_Ionization_Penalty>  (104) 
4.38016e-06

>  <r_epik_Ionization_Penalty_Charging>  (104) 
0

>  <r_epik_Ionization_Penalty_Neutral>  (104) 
4.38016e-06

>  <r_epik_State_Penalty>  (104) 
-0

>  <r_epik_Charging_Adjusted_Penalty>  (104) 
0

>  <i_epik_Tot_Q>  (104) 
0

>  <i_epik_Tot_abs_Q>  (104) 
0

>  <s_lp_Force_Field>  (104) 
OPLS3e

>  <r_lp_Energy>  (104) 
63.6943

>  <b_lp_Chiralities_Consistent>  (104) 
1

>  <s_lp_Variant>  (104) 
40:0-1

>  <s_i_glide_gridfile>  (104) 
pfpi4k_grid

>  <i_i_glide_lignum>  (104) 
11

>  <i_i_glide_rotatable_bonds>  (104) 
2

>  <r_i_docking_score>  (104) 
-2.81483

>  <r_i_glide_ligand_efficiency>  (104) 
-0.140741

>  <r_i_glide_ligand_efficiency_sa>  (104) 
-0.382031

>  <r_i_glide_ligand_efficiency_ln>  (104) 
-0.704459

>  <r_i_glide_gscore>  (104) 
-2.81483

>  <r_i_glide_lipo>  (104) 
-0.392237

>  <r_i_glide_hbond>  (104) 
0

>  <r_i_glide_metal>  (104) 
-0

>  <r_i_glide_rewards>  (104) 
-1.51071

>  <r_i_glide_evdw>  (104) 
-18.1043

>  <r_i_glide_ecoul>  (104) 
-0.0444715

>  <r_i_glide_erotb>  (104) 
0

>  <r_i_glide_esite>  (104) 
0

>  <r_i_glide_emodel>  (104) 
-21.7846

>  <r_i_glide_energy>  (104) 
-18.1487

>  <r_i_glide_einternal>  (104) 
0.108196

>  <r_i_glide_intrahb_reward>  (104) 
-0

>  <i_i_glide_confnum>  (104) 
2

>  <i_i_glide_posenum>  (104) 
4

>  <r_i_glide_eff_state_penalty>  (104) 
0

>  <ligand_id>  (104) 
40

>  <original_smiles>  (104) 
CC1(C)CCCC2(C)C1CCC13CC(O)(CC(O)C12)C3

>  <smiles>  (104) 
[H]OC1([H])C([H])([H])C2(O[H])C([H])([H])C3(C([H])([H])C([H])([H])C4([H])C(C([H])([H])[H])(C([H])([H])[H])C([H])([H])C([H])([H])C([H])([H])C4(C([H])([H])[H])C13[H])C2([H])[H]

$$$$
40:0:2
     RDKit          3D

 50 53  0  0  1  0  0  0  0  0999 V2000
    2.2254   -3.2221   -3.6238 C   0  0  0  0  0  0  0  0  0  0  0  0
    3.4965   -2.7862   -2.8671 C   0  0  0  0  0  0  0  0  0  0  0  0
    4.6142   -3.0782   -3.8672 C   0  0  0  0  0  0  0  0  0  0  0  0
    3.4017   -1.2906   -2.6266 C   0  0  0  0  0  0  0  0  0  0  0  0
    4.5158   -0.7808   -1.7323 C   0  0  0  0  0  0  0  0  0  0  0  0
    4.6381   -1.5138   -0.3943 C   0  0  0  0  0  0  0  0  0  0  0  0
    4.8735   -3.0148   -0.6043 C   0  0  2  0  0  0  0  0  0  0  0  0
    6.2599   -3.2160   -1.2644 C   0  0  0  0  0  0  0  0  0  0  0  0
    3.7403   -3.5499   -1.5208 C   0  0  1  0  0  0  0  0  0  0  0  0
    2.4153   -3.7132   -0.7499 C   0  0  0  0  0  0  0  0  0  0  0  0
    2.5601   -4.6190    0.4647 C   0  0  0  0  0  0  0  0  0  0  0  0
    3.5542   -4.0904    1.4520 C   0  0  2  0  0  0  0  0  0  0  0  0
    3.1281   -2.9852    2.4376 C   0  0  0  0  0  0  0  0  0  0  0  0
    4.0774   -3.6541    3.4054 C   0  0  2  0  0  0  0  0  0  0  0  0
    3.7675   -3.5423    4.7614 O   0  0  0  0  0  0  0  0  0  0  0  0
    5.5229   -3.3027    3.2087 C   0  0  0  0  0  0  0  0  0  0  0  0
    6.0013   -3.4396    1.7258 C   0  0  1  0  0  0  0  0  0  0  0  0
    7.0797   -4.3616    1.6035 O   0  0  0  0  0  0  0  0  0  0  0  0
    4.8982   -3.8757    0.7174 C   0  0  2  0  0  0  0  0  0  0  0  0
    3.6709   -4.9394    2.7274 C   0  0  0  0  0  0  0  0  0  0  0  0
    2.1632   -2.7770   -4.6167 H   0  0  0  0  0  0  0  0  0  0  0  0
    1.3186   -2.9443   -3.1108 H   0  0  0  0  0  0  0  0  0  0  0  0
    2.2180   -4.2937   -3.7924 H   0  0  0  0  0  0  0  0  0  0  0  0
    5.3477   -2.2974   -3.8226 H   0  0  0  0  0  0  0  0  0  0  0  0
    4.2360   -3.0506   -4.8655 H   0  0  0  0  0  0  0  0  0  0  0  0
    5.1009   -4.0384   -3.7252 H   0  0  0  0  0  0  0  0  0  0  0  0
    3.3582   -0.7345   -3.5646 H   0  0  0  0  0  0  0  0  0  0  0  0
    2.4580   -1.0963   -2.1486 H   0  0  0  0  0  0  0  0  0  0  0  0
    5.4556   -0.7020   -2.2680 H   0  0  0  0  0  0  0  0  0  0  0  0
    4.2234    0.2092   -1.4783 H   0  0  0  0  0  0  0  0  0  0  0  0
    5.4239   -1.0508    0.1984 H   0  0  0  0  0  0  0  0  0  0  0  0
    3.7108   -1.3569    0.1442 H   0  0  0  0  0  0  0  0  0  0  0  0
    6.2955   -4.2319   -1.6395 H   0  0  0  0  0  0  0  0  0  0  0  0
    7.1035   -3.0713   -0.5956 H   0  0  0  0  0  0  0  0  0  0  0  0
    6.4811   -2.5607   -2.0964 H   0  0  0  0  0  0  0  0  0  0  0  0
    4.0810   -4.5519   -1.7605 H   0  0  0  0  0  0  0  0  0  0  0  0
    2.0437   -2.7403   -0.4285 H   0  0  0  0  0  0  0  0  0  0  0  0
    1.6354   -4.1682   -1.3565 H   0  0  0  0  0  0  0  0  0  0  0  0
    1.6134   -4.6950    0.9882 H   0  0  0  0  0  0  0  0  0  0  0  0
    2.8062   -5.6357    0.1512 H   0  0  0  0  0  0  0  0  0  0  0  0
    3.4495   -1.9797    2.1918 H   0  0  0  0  0  0  0  0  0  0  0  0
    2.0872   -3.0249    2.7474 H   0  0  0  0  0  0  0  0  0  0  0  0
    2.8474   -3.7468    4.8498 H   0  0  0  0  0  0  0  0  0  0  0  0
    5.6975   -2.2742    3.5412 H   0  0  0  0  0  0  0  0  0  0  0  0
    6.1251   -3.9362    3.8689 H   0  0  0  0  0  0  0  0  0  0  0  0
    6.4188   -2.4683    1.4599 H   0  0  0  0  0  0  0  0  0  0  0  0
    6.8434   -5.1685    2.0346 H   0  0  0  0  0  0  0  0  0  0  0  0
    5.1843   -4.8737    0.3769 H   0  0  0  0  0  0  0  0  0  0  0  0
    2.7282   -5.3515    3.0830 H   0  0  0  0  0  0  0  0  0  0  0  0
    4.4593   -5.6881    2.6806 H   0  0  0  0  0  0  0  0  0  0  0  0
  1  2  1  0
  1 21  1  0
  1 22  1  0
  1 23  1  0
  2  9  1  0
  2  3  1  0
  2  4  1  0
  3 24  1  0
  3 25  1  0
  3 26  1  0
  4  5  1  0
  4 27  1  0
  4 28  1  0
  5  6  1  0
  5 29  1  0
  5 30  1  0
  6  7  1  0
  6 31  1  0
  6 32  1  0
  7 19  1  0
  7  8  1  6
  7  9  1  0
  8 33  1  0
  8 34  1  0
  8 35  1  0
  9 10  1  0
  9 36  1  6
 10 11  1  0
 10 37  1  0
 10 38  1  0
 12 11  1  6
 11 39  1  0
 11 40  1  0
 12 19  1  0
 12 20  1  0
 12 13  1  0
 13 14  1  0
 13 41  1  0
 13 42  1  0
 14 15  1  1
 14 16  1  0
 14 20  1  0
 15 43  1  0
 16 17  1  0
 16 44  1  0
 16 45  1  0
 17 18  1  0
 17 19  1  0
 17 46  1  6
 18 47  1  0
 19 48  1  6
 20 49  1  0
 20 50  1  0
M  END
>  <i_m_ct_stereo_status>  (105) 
1

>  <s_m_source_file>  (105) 
/var/tmp/pbs.5076255.sched01/tmpxs4nfypl/40fgi3imsd.sdf

>  <i_m_source_file_index>  (105) 
11

>  <i_lp_mmshare_version>  (105) 
48012

>  <i_f3d_flags>  (105) 
0

>  <s_epik_input>  (105) 
W0NIMl0xW0NIMl1bQ0gyXUMoW0NIM10pKFtDSDNdKVtDQEhdKFtDSDJdW0NIMl0yKVtDQF0xKFtDSDNdKVtDQEhdKFtDQF0yMzQpW0NASF0oW09IXSlbQ0gyXVtDQF0oW0NIMl0zKShbT0hdKVtDSDJdNA==

>  <s_epik_cmdline>  (105) 
J2VwaWtfcHl0aG9uJywgJy1waHQnLCAnMi4wJywgJy1waCcsICc3LjAnLCAnLXRuJywgJzgnLCAnLW1hJywgJzIwMCcsICctaW1hZScsICc8aW5maWxlLm1hZT4nLCAnLW9tYWUnLCAnPG91dGZpbGUubWFlPic=

>  <r_lp_tautomer_probability>  (105) 
1

>  <r_epik_Ionization_Penalty>  (105) 
4.38016e-06

>  <r_epik_Ionization_Penalty_Charging>  (105) 
0

>  <r_epik_Ionization_Penalty_Neutral>  (105) 
4.38016e-06

>  <r_epik_State_Penalty>  (105) 
-0

>  <r_epik_Charging_Adjusted_Penalty>  (105) 
0

>  <i_epik_Tot_Q>  (105) 
0

>  <i_epik_Tot_abs_Q>  (105) 
0

>  <s_lp_Force_Field>  (105) 
OPLS3e

>  <r_lp_Energy>  (105) 
63.6943

>  <b_lp_Chiralities_Consistent>  (105) 
1

>  <s_lp_Variant>  (105) 
40:0-1

>  <s_i_glide_gridfile>  (105) 
pfpi4k_grid

>  <i_i_glide_lignum>  (105) 
11

>  <i_i_glide_rotatable_bonds>  (105) 
2

>  <r_i_docking_score>  (105) 
-2.67534

>  <r_i_glide_ligand_efficiency>  (105) 
-0.133767

>  <r_i_glide_ligand_efficiency_sa>  (105) 
-0.3631

>  <r_i_glide_ligand_efficiency_ln>  (105) 
-0.66955

>  <r_i_glide_gscore>  (105) 
-2.67534

>  <r_i_glide_lipo>  (105) 
-0.606279

>  <r_i_glide_hbond>  (105) 
0

>  <r_i_glide_metal>  (105) 
-0

>  <r_i_glide_rewards>  (105) 
-1.51071

>  <r_i_glide_evdw>  (105) 
-9.9788

>  <r_i_glide_ecoul>  (105) 
-0.396115

>  <r_i_glide_erotb>  (105) 
0

>  <r_i_glide_esite>  (105) 
0

>  <r_i_glide_emodel>  (105) 
-12.4824

>  <r_i_glide_energy>  (105) 
-10.3749

>  <r_i_glide_einternal>  (105) 
0.025856

>  <r_i_glide_intrahb_reward>  (105) 
-0

>  <i_i_glide_confnum>  (105) 
1

>  <i_i_glide_posenum>  (105) 
1

>  <r_i_glide_eff_state_penalty>  (105) 
0

>  <ligand_id>  (105) 
40

>  <original_smiles>  (105) 
CC1(C)CCCC2(C)C1CCC13CC(O)(CC(O)C12)C3

>  <smiles>  (105) 
[H]OC1([H])C([H])([H])C2(O[H])C([H])([H])C3(C([H])([H])C([H])([H])C4([H])C(C([H])([H])[H])(C([H])([H])[H])C([H])([H])C([H])([H])C([H])([H])C4(C([H])([H])[H])C13[H])C2([H])[H]

$$$$
41:0:0
     RDKit          3D

 55 59  0  0  1  0  0  0  0  0999 V2000
    1.9599   -3.4585   -2.0584 C   0  0  0  0  0  0  0  0  0  0  0  0
    3.1907   -3.1935   -1.5946 C   0  0  0  0  0  0  0  0  0  0  0  0
    4.3948   -3.5447   -2.4353 C   0  0  0  0  0  0  0  0  0  0  0  0
    3.4023   -2.5257   -0.2249 C   0  0  1  0  0  0  0  0  0  0  0  0
    3.4152   -1.1382   -0.4080 O   0  0  0  0  0  0  0  0  0  0  0  0
    2.4623   -2.9415    0.6865 O   0  0  0  0  0  0  0  0  0  0  0  0
    3.2328   -3.5215    1.7908 C   0  0  2  0  0  0  0  0  0  0  0  0
    2.2192   -4.1013    2.7377 C   0  0  2  0  0  0  0  0  0  0  0  0
    2.2454   -3.3280    4.0787 C   0  0  0  0  0  0  0  0  0  0  0  0
    2.3777   -1.7823    3.8712 C   0  0  0  0  0  0  0  0  0  0  0  0
    3.2812   -1.3135    2.6733 C   0  0  1  0  0  0  0  0  0  0  0  0
    3.9246   -0.0931    2.9798 O   0  0  0  0  0  0  0  0  0  0  0  0
    4.2170   -2.4546    2.1590 C   0  0  1  0  0  0  0  0  0  0  0  0
    5.3460   -2.5804    3.2183 C   0  0  0  0  0  0  0  0  0  0  0  0
    4.5303   -2.9634    0.6715 C   0  0  2  0  0  0  0  0  0  0  0  0
    5.9350   -2.5521    0.1524 C   0  0  0  0  0  0  0  0  0  0  0  0
    4.2613   -4.4826    1.1503 C   0  0  1  0  0  0  0  0  0  0  0  0
    5.3918   -5.0367    1.7927 O   0  0  0  0  0  0  0  0  0  0  0  0
    3.1898   -5.6651    1.1444 C   0  0  1  0  0  0  0  0  0  0  0  0
    2.2031   -5.4842    0.1338 O   0  0  0  0  0  0  0  0  0  0  0  0
    3.6545   -7.0951    0.8853 C   0  0  0  0  0  0  0  0  0  0  0  0
    2.9365   -8.1469    1.3518 C   0  0  0  0  0  0  0  0  0  0  0  0
    1.6452   -8.0294    2.1771 C   0  0  0  0  0  0  0  0  0  0  0  0
    1.3396   -6.5919    2.6303 C   0  0  0  0  0  0  0  0  0  0  0  0
    0.2057   -6.2559    2.9919 O   0  0  0  0  0  0  0  0  0  0  0  0
    2.5229   -5.6086    2.5928 C   0  0  2  0  0  0  0  0  0  0  0  0
    3.4543   -6.0624    3.7623 C   0  0  0  0  0  0  0  0  0  0  0  0
    1.8206   -3.9245   -3.0237 H   0  0  0  0  0  0  0  0  0  0  0  0
    1.0807   -3.2142   -1.4887 H   0  0  0  0  0  0  0  0  0  0  0  0
    4.9849   -2.6469   -2.5966 H   0  0  0  0  0  0  0  0  0  0  0  0
    4.1160   -3.9378   -3.4122 H   0  0  0  0  0  0  0  0  0  0  0  0
    4.9761   -4.3165   -1.9339 H   0  0  0  0  0  0  0  0  0  0  0  0
    2.5217   -0.9117   -0.6545 H   0  0  0  0  0  0  0  0  0  0  0  0
    1.2139   -3.9277    2.3556 H   0  0  0  0  0  0  0  0  0  0  0  0
    1.3425   -3.5400    4.6460 H   0  0  0  0  0  0  0  0  0  0  0  0
    3.0617   -3.6549    4.7157 H   0  0  0  0  0  0  0  0  0  0  0  0
    1.3839   -1.3504    3.7366 H   0  0  0  0  0  0  0  0  0  0  0  0
    2.7482   -1.3438    4.8002 H   0  0  0  0  0  0  0  0  0  0  0  0
    2.5758   -1.0118    1.9080 H   0  0  0  0  0  0  0  0  0  0  0  0
    3.2584    0.5811    3.0204 H   0  0  0  0  0  0  0  0  0  0  0  0
    5.7503   -1.6040    3.4696 H   0  0  0  0  0  0  0  0  0  0  0  0
    6.2056   -3.1220    2.8803 H   0  0  0  0  0  0  0  0  0  0  0  0
    5.0267   -3.0307    4.1528 H   0  0  0  0  0  0  0  0  0  0  0  0
    6.7133   -2.9575    0.7966 H   0  0  0  0  0  0  0  0  0  0  0  0
    6.0506   -1.4668    0.1678 H   0  0  0  0  0  0  0  0  0  0  0  0
    6.2078   -2.9169   -0.8325 H   0  0  0  0  0  0  0  0  0  0  0  0
    6.0409   -5.1837    1.1179 H   0  0  0  0  0  0  0  0  0  0  0  0
    2.6279   -5.4805   -0.7119 H   0  0  0  0  0  0  0  0  0  0  0  0
    4.5429   -7.2442    0.2805 H   0  0  0  0  0  0  0  0  0  0  0  0
    3.2347   -9.1594    1.1159 H   0  0  0  0  0  0  0  0  0  0  0  0
    0.7993   -8.4150    1.6059 H   0  0  0  0  0  0  0  0  0  0  0  0
    1.7304   -8.6550    3.0652 H   0  0  0  0  0  0  0  0  0  0  0  0
    4.2914   -5.3868    3.9323 H   0  0  0  0  0  0  0  0  0  0  0  0
    3.8795   -7.0525    3.6039 H   0  0  0  0  0  0  0  0  0  0  0  0
    2.9011   -6.1064    4.7023 H   0  0  0  0  0  0  0  0  0  0  0  0
  1  2  2  0
  1 28  1  0
  1 29  1  0
  2  3  1  0
  2  4  1  0
  3 30  1  0
  3 31  1  0
  3 32  1  0
  4 15  1  0
  4  5  1  6
  4  6  1  0
  5 33  1  0
  7  6  1  6
  7 13  1  0
  7 17  1  0
  7  8  1  0
  8 26  1  0
  8  9  1  0
  8 34  1  6
  9 10  1  0
  9 35  1  0
  9 36  1  0
 10 11  1  0
 10 37  1  0
 10 38  1  0
 11 12  1  0
 11 13  1  0
 11 39  1  6
 12 40  1  0
 13 14  1  1
 13 15  1  0
 14 41  1  0
 14 42  1  0
 14 43  1  0
 15 16  1  6
 15 17  1  0
 16 44  1  0
 16 45  1  0
 16 46  1  0
 17 18  1  1
 17 19  1  0
 18 47  1  0
 19 26  1  0
 19 20  1  6
 19 21  1  0
 20 48  1  0
 21 22  2  0
 21 49  1  0
 22 23  1  0
 22 50  1  0
 23 24  1  0
 23 51  1  0
 23 52  1  0
 24 25  2  0
 24 26  1  0
 26 27  1  1
 27 53  1  0
 27 54  1  0
 27 55  1  0
M  END
>  <i_m_ct_stereo_status>  (106) 
1

>  <s_m_source_file>  (106) 
/var/tmp/pbs.5076255.sched01/tmpxs4nfypl/40fgi3imsd.sdf

>  <i_m_source_file_index>  (106) 
12

>  <i_lp_mmshare_version>  (106) 
48012

>  <i_f3d_flags>  (106) 
0

>  <s_epik_input>  (106) 
W0NIMl0xW0NIMl1bQ0BASF0oW09IXSlbQ0BdMihbQ0gzXSlbQ0BdKFtDSDNdKShbQ0BAXShPMykoW09IXSlDKD1bQ0gyXSlbQ0gzXSlbQ0BdNChbT0hdKVtDQF0oW09IXSkoW0NAXTUoW0NAQEhdMVtDQF0yMzQpW0NIM10pW0NIXT1bQ0hdW0NIMl1DNT1P

>  <s_epik_cmdline>  (106) 
J2VwaWtfcHl0aG9uJywgJy1waHQnLCAnMi4wJywgJy1waCcsICc3LjAnLCAnLXRuJywgJzgnLCAnLW1hJywgJzIwMCcsICctaW1hZScsICc8aW5maWxlLm1hZT4nLCAnLW9tYWUnLCAnPG91dGZpbGUubWFlPic=

>  <r_lp_tautomer_probability>  (106) 
1

>  <r_epik_Ionization_Penalty>  (106) 
2.67035e-06

>  <r_epik_Ionization_Penalty_Charging>  (106) 
0

>  <r_epik_Ionization_Penalty_Neutral>  (106) 
2.67035e-06

>  <r_epik_State_Penalty>  (106) 
-0

>  <r_epik_Charging_Adjusted_Penalty>  (106) 
0

>  <i_epik_Tot_Q>  (106) 
0

>  <i_epik_Tot_abs_Q>  (106) 
0

>  <s_lp_Force_Field>  (106) 
OPLS3e

>  <r_lp_Energy>  (106) 
136.605

>  <b_lp_Chiralities_Consistent>  (106) 
1

>  <s_lp_Variant>  (106) 
41:0-1

>  <s_i_glide_gridfile>  (106) 
pfpi4k_grid

>  <i_i_glide_lignum>  (106) 
12

>  <i_i_glide_rotatable_bonds>  (106) 
5

>  <r_i_docking_score>  (106) 
-3.55695

>  <r_i_glide_ligand_efficiency>  (106) 
-0.131739

>  <r_i_glide_ligand_efficiency_sa>  (106) 
-0.395217

>  <r_i_glide_ligand_efficiency_ln>  (106) 
-0.827999

>  <r_i_glide_gscore>  (106) 
-3.55695

>  <r_i_glide_lipo>  (106) 
-0.411037

>  <r_i_glide_hbond>  (106) 
-0.110259

>  <r_i_glide_metal>  (106) 
-0

>  <r_i_glide_rewards>  (106) 
-0.842431

>  <r_i_glide_evdw>  (106) 
-18.8155

>  <r_i_glide_ecoul>  (106) 
-8.76041

>  <r_i_glide_erotb>  (106) 
0.136601

>  <r_i_glide_esite>  (106) 
-0.0749878

>  <r_i_glide_emodel>  (106) 
-32.5834

>  <r_i_glide_energy>  (106) 
-27.5759

>  <r_i_glide_einternal>  (106) 
3.95134

>  <r_i_glide_intrahb_reward>  (106) 
-0

>  <i_i_glide_confnum>  (106) 
3

>  <i_i_glide_posenum>  (106) 
11

>  <r_i_glide_eff_state_penalty>  (106) 
0

>  <ligand_id>  (106) 
41

>  <original_smiles>  (106) 
C=C(C)C1(O)OC23C4CCC(O)C2(C)C1(C)C3(O)C1(O)C=CCC(=O)C41C

>  <smiles>  (106) 
[H]OC1(C(=C([H])[H])C([H])([H])[H])OC23C4([H])C([H])([H])C([H])([H])C([H])(O[H])C2(C([H])([H])[H])C1(C([H])([H])[H])C3(O[H])C1(O[H])C([H])=C([H])C([H])([H])C(=O)C14C([H])([H])[H]

$$$$
41:0:1
     RDKit          3D

 55 59  0  0  1  0  0  0  0  0999 V2000
    1.9628   -3.6298   -1.9842 C   0  0  0  0  0  0  0  0  0  0  0  0
    3.1639   -3.1814   -1.6014 C   0  0  0  0  0  0  0  0  0  0  0  0
    4.3321   -3.3072   -2.5571 C   0  0  0  0  0  0  0  0  0  0  0  0
    3.3871   -2.5402   -0.2194 C   0  0  1  0  0  0  0  0  0  0  0  0
    3.4166   -1.1492   -0.3734 O   0  0  0  0  0  0  0  0  0  0  0  0
    2.4484   -2.9615    0.6894 O   0  0  0  0  0  0  0  0  0  0  0  0
    3.2185   -3.5526    1.7906 C   0  0  2  0  0  0  0  0  0  0  0  0
    2.2090   -4.1262    2.7464 C   0  0  2  0  0  0  0  0  0  0  0  0
    2.2495   -3.3558    4.0893 C   0  0  0  0  0  0  0  0  0  0  0  0
    2.3930   -1.8111    3.8830 C   0  0  0  0  0  0  0  0  0  0  0  0
    3.2902   -1.3505    2.6868 C   0  0  1  0  0  0  0  0  0  0  0  0
    3.9484   -0.1328    2.9693 O   0  0  0  0  0  0  0  0  0  0  0  0
    4.2131   -2.4941    2.1597 C   0  0  1  0  0  0  0  0  0  0  0  0
    5.3440   -2.6249    3.2188 C   0  0  0  0  0  0  0  0  0  0  0  0
    4.5148   -2.9955    0.6709 C   0  0  2  0  0  0  0  0  0  0  0  0
    5.9212   -2.5698    0.1546 C   0  0  0  0  0  0  0  0  0  0  0  0
    4.2491   -4.5135    1.1511 C   0  0  1  0  0  0  0  0  0  0  0  0
    5.3797   -5.0666    1.7876 O   0  0  0  0  0  0  0  0  0  0  0  0
    3.1836   -5.6992    1.1654 C   0  0  1  0  0  0  0  0  0  0  0  0
    2.1806   -5.5266    0.1865 O   0  0  0  0  0  0  0  0  0  0  0  0
    3.6426   -7.1224    0.8957 C   0  0  0  0  0  0  0  0  0  0  0  0
    2.9041   -8.1717    1.3490 C   0  0  0  0  0  0  0  0  0  0  0  0
    1.6140   -8.0481    2.1690 C   0  0  0  0  0  0  0  0  0  0  0  0
    1.3249   -6.6080    2.6307 C   0  0  0  0  0  0  0  0  0  0  0  0
    0.1972   -6.2623    2.9894 O   0  0  0  0  0  0  0  0  0  0  0  0
    2.5136   -5.6346    2.6031 C   0  0  2  0  0  0  0  0  0  0  0  0
    3.4385   -6.0937    3.7646 C   0  0  0  0  0  0  0  0  0  0  0  0
    1.8146   -4.0755   -2.9575 H   0  0  0  0  0  0  0  0  0  0  0  0
    1.1081   -3.5476   -1.3394 H   0  0  0  0  0  0  0  0  0  0  0  0
    4.8071   -2.3345   -2.6512 H   0  0  0  0  0  0  0  0  0  0  0  0
    4.0087   -3.6377   -3.5456 H   0  0  0  0  0  0  0  0  0  0  0  0
    5.0264   -4.0689   -2.2010 H   0  0  0  0  0  0  0  0  0  0  0  0
    2.5161   -0.9162   -0.6416 H   0  0  0  0  0  0  0  0  0  0  0  0
    1.1994   -3.9429    2.3697 H   0  0  0  0  0  0  0  0  0  0  0  0
    1.3424   -3.5558    4.6506 H   0  0  0  0  0  0  0  0  0  0  0  0
    3.0624   -3.6950    4.7272 H   0  0  0  0  0  0  0  0  0  0  0  0
    1.4019   -1.3681    3.7533 H   0  0  0  0  0  0  0  0  0  0  0  0
    2.7661   -1.3742    4.8097 H   0  0  0  0  0  0  0  0  0  0  0  0
    2.5784   -1.0533    1.9349 H   0  0  0  0  0  0  0  0  0  0  0  0
    4.1081    0.2993    2.1433 H   0  0  0  0  0  0  0  0  0  0  0  0
    5.7525   -1.6495    3.4747 H   0  0  0  0  0  0  0  0  0  0  0  0
    6.2069   -3.1689    2.8790 H   0  0  0  0  0  0  0  0  0  0  0  0
    5.0255   -3.0740    4.1545 H   0  0  0  0  0  0  0  0  0  0  0  0
    6.6938   -2.9958    0.7836 H   0  0  0  0  0  0  0  0  0  0  0  0
    6.0434   -1.4878    0.1970 H   0  0  0  0  0  0  0  0  0  0  0  0
    6.2001   -2.9034   -0.8406 H   0  0  0  0  0  0  0  0  0  0  0  0
    5.9670   -5.3320    1.0976 H   0  0  0  0  0  0  0  0  0  0  0  0
    2.6053   -5.4558   -0.6556 H   0  0  0  0  0  0  0  0  0  0  0  0
    4.5184   -7.2693    0.2733 H   0  0  0  0  0  0  0  0  0  0  0  0
    3.1789   -9.1803    1.0958 H   0  0  0  0  0  0  0  0  0  0  0  0
    0.7610   -8.4184    1.5954 H   0  0  0  0  0  0  0  0  0  0  0  0
    1.6904   -8.6777    3.0564 H   0  0  0  0  0  0  0  0  0  0  0  0
    4.2790   -5.4232    3.9291 H   0  0  0  0  0  0  0  0  0  0  0  0
    3.8525   -7.0852    3.5952 H   0  0  0  0  0  0  0  0  0  0  0  0
    2.8827   -6.1405    4.7006 H   0  0  0  0  0  0  0  0  0  0  0  0
  1  2  2  0
  1 28  1  0
  1 29  1  0
  2  3  1  0
  2  4  1  0
  3 30  1  0
  3 31  1  0
  3 32  1  0
  4 15  1  0
  4  5  1  6
  4  6  1  0
  5 33  1  0
  7  6  1  6
  7 13  1  0
  7 17  1  0
  7  8  1  0
  8 26  1  0
  8  9  1  0
  8 34  1  6
  9 10  1  0
  9 35  1  0
  9 36  1  0
 10 11  1  0
 10 37  1  0
 10 38  1  0
 11 12  1  0
 11 13  1  0
 11 39  1  6
 12 40  1  0
 13 14  1  1
 13 15  1  0
 14 41  1  0
 14 42  1  0
 14 43  1  0
 15 16  1  6
 15 17  1  0
 16 44  1  0
 16 45  1  0
 16 46  1  0
 17 18  1  1
 17 19  1  0
 18 47  1  0
 19 26  1  0
 19 20  1  6
 19 21  1  0
 20 48  1  0
 21 22  2  0
 21 49  1  0
 22 23  1  0
 22 50  1  0
 23 24  1  0
 23 51  1  0
 23 52  1  0
 24 25  2  0
 24 26  1  0
 26 27  1  1
 27 53  1  0
 27 54  1  0
 27 55  1  0
M  END
>  <i_m_ct_stereo_status>  (107) 
1

>  <s_m_source_file>  (107) 
/var/tmp/pbs.5076255.sched01/tmpxs4nfypl/40fgi3imsd.sdf

>  <i_m_source_file_index>  (107) 
12

>  <i_lp_mmshare_version>  (107) 
48012

>  <i_f3d_flags>  (107) 
0

>  <s_epik_input>  (107) 
W0NIMl0xW0NIMl1bQ0BASF0oW09IXSlbQ0BdMihbQ0gzXSlbQ0BdKFtDSDNdKShbQ0BAXShPMykoW09IXSlDKD1bQ0gyXSlbQ0gzXSlbQ0BdNChbT0hdKVtDQF0oW09IXSkoW0NAXTUoW0NAQEhdMVtDQF0yMzQpW0NIM10pW0NIXT1bQ0hdW0NIMl1DNT1P

>  <s_epik_cmdline>  (107) 
J2VwaWtfcHl0aG9uJywgJy1waHQnLCAnMi4wJywgJy1waCcsICc3LjAnLCAnLXRuJywgJzgnLCAnLW1hJywgJzIwMCcsICctaW1hZScsICc8aW5maWxlLm1hZT4nLCAnLW9tYWUnLCAnPG91dGZpbGUubWFlPic=

>  <r_lp_tautomer_probability>  (107) 
1

>  <r_epik_Ionization_Penalty>  (107) 
2.67035e-06

>  <r_epik_Ionization_Penalty_Charging>  (107) 
0

>  <r_epik_Ionization_Penalty_Neutral>  (107) 
2.67035e-06

>  <r_epik_State_Penalty>  (107) 
-0

>  <r_epik_Charging_Adjusted_Penalty>  (107) 
0

>  <i_epik_Tot_Q>  (107) 
0

>  <i_epik_Tot_abs_Q>  (107) 
0

>  <s_lp_Force_Field>  (107) 
OPLS3e

>  <r_lp_Energy>  (107) 
136.605

>  <b_lp_Chiralities_Consistent>  (107) 
1

>  <s_lp_Variant>  (107) 
41:0-1

>  <s_i_glide_gridfile>  (107) 
pfpi4k_grid

>  <i_i_glide_lignum>  (107) 
12

>  <i_i_glide_rotatable_bonds>  (107) 
5

>  <r_i_docking_score>  (107) 
-3.41339

>  <r_i_glide_ligand_efficiency>  (107) 
-0.126422

>  <r_i_glide_ligand_efficiency_sa>  (107) 
-0.379266

>  <r_i_glide_ligand_efficiency_ln>  (107) 
-0.794581

>  <r_i_glide_gscore>  (107) 
-3.41339

>  <r_i_glide_lipo>  (107) 
-0.35246

>  <r_i_glide_hbond>  (107) 
-0.112778

>  <r_i_glide_metal>  (107) 
-0

>  <r_i_glide_rewards>  (107) 
-0.842431

>  <r_i_glide_evdw>  (107) 
-18.3558

>  <r_i_glide_ecoul>  (107) 
-8.33122

>  <r_i_glide_erotb>  (107) 
0.136601

>  <r_i_glide_esite>  (107) 
-0.0748507

>  <r_i_glide_emodel>  (107) 
-31.6144

>  <r_i_glide_energy>  (107) 
-26.687

>  <r_i_glide_einternal>  (107) 
3.27028

>  <r_i_glide_intrahb_reward>  (107) 
-0

>  <i_i_glide_confnum>  (107) 
3

>  <i_i_glide_posenum>  (107) 
1

>  <r_i_glide_eff_state_penalty>  (107) 
0

>  <ligand_id>  (107) 
41

>  <original_smiles>  (107) 
C=C(C)C1(O)OC23C4CCC(O)C2(C)C1(C)C3(O)C1(O)C=CCC(=O)C41C

>  <smiles>  (107) 
[H]OC1(C(=C([H])[H])C([H])([H])[H])OC23C4([H])C([H])([H])C([H])([H])C([H])(O[H])C2(C([H])([H])[H])C1(C([H])([H])[H])C3(O[H])C1(O[H])C([H])=C([H])C([H])([H])C(=O)C14C([H])([H])[H]

$$$$
41:0:2
     RDKit          3D

 55 59  0  0  1  0  0  0  0  0999 V2000
    1.9521   -3.7175   -1.8570 C   0  0  0  0  0  0  0  0  0  0  0  0
    3.1264   -3.2101   -1.4743 C   0  0  0  0  0  0  0  0  0  0  0  0
    4.2661   -3.1821   -2.4736 C   0  0  0  0  0  0  0  0  0  0  0  0
    3.3586   -2.6183   -0.0698 C   0  0  1  0  0  0  0  0  0  0  0  0
    3.4206   -1.2258   -0.1834 O   0  0  0  0  0  0  0  0  0  0  0  0
    2.4064   -3.0501    0.8247 O   0  0  0  0  0  0  0  0  0  0  0  0
    3.1531   -3.6813    1.9165 C   0  0  2  0  0  0  0  0  0  0  0  0
    2.1233   -4.2576    2.8525 C   0  0  2  0  0  0  0  0  0  0  0  0
    2.1740   -3.5255    4.2131 C   0  0  0  0  0  0  0  0  0  0  0  0
    2.3513   -1.9787    4.0537 C   0  0  0  0  0  0  0  0  0  0  0  0
    3.2662   -1.4997    2.8703 C   0  0  1  0  0  0  0  0  0  0  0  0
    3.9449   -0.3001    3.1956 O   0  0  0  0  0  0  0  0  0  0  0  0
    4.1680   -2.6520    2.3183 C   0  0  1  0  0  0  0  0  0  0  0  0
    5.2905   -2.8403    3.3749 C   0  0  0  0  0  0  0  0  0  0  0  0
    4.4670   -3.1219    0.8187 C   0  0  2  0  0  0  0  0  0  0  0  0
    5.8828   -2.7196    0.3178 C   0  0  0  0  0  0  0  0  0  0  0  0
    4.1701   -4.6500    1.2547 C   0  0  1  0  0  0  0  0  0  0  0  0
    5.2870   -5.2450    1.8725 O   0  0  0  0  0  0  0  0  0  0  0  0
    3.0771   -5.8147    1.2439 C   0  0  1  0  0  0  0  0  0  0  0  0
    2.0717   -5.5940    0.2744 O   0  0  0  0  0  0  0  0  0  0  0  0
    3.5111   -7.2426    0.9252 C   0  0  0  0  0  0  0  0  0  0  0  0
    2.7465   -8.2825    1.3383 C   0  0  0  0  0  0  0  0  0  0  0  0
    1.4489   -8.1495    2.1606 C   0  0  0  0  0  0  0  0  0  0  0  0
    1.1840   -6.7165    2.6704 C   0  0  0  0  0  0  0  0  0  0  0  0
    0.0613   -6.3472    3.0214 O   0  0  0  0  0  0  0  0  0  0  0  0
    2.3962   -5.7739    2.6766 C   0  0  2  0  0  0  0  0  0  0  0  0
    3.3079   -6.2844    3.8238 C   0  0  0  0  0  0  0  0  0  0  0  0
    1.8137   -4.1299   -2.8429 H   0  0  0  0  0  0  0  0  0  0  0  0
    1.0981   -3.7152   -1.1988 H   0  0  0  0  0  0  0  0  0  0  0  0
    4.6590   -2.1706   -2.5362 H   0  0  0  0  0  0  0  0  0  0  0  0
    3.9169   -3.4760   -3.4652 H   0  0  0  0  0  0  0  0  0  0  0  0
    5.0453   -3.8960   -2.2035 H   0  0  0  0  0  0  0  0  0  0  0  0
    2.5296   -0.9547   -0.4377 H   0  0  0  0  0  0  0  0  0  0  0  0
    1.1178   -4.0389    2.4815 H   0  0  0  0  0  0  0  0  0  0  0  0
    1.2623   -3.7299    4.7712 H   0  0  0  0  0  0  0  0  0  0  0  0
    2.9784   -3.9020    4.8372 H   0  0  0  0  0  0  0  0  0  0  0  0
    1.3714   -1.5155    3.9293 H   0  0  0  0  0  0  0  0  0  0  0  0
    2.7254   -1.5824    4.9973 H   0  0  0  0  0  0  0  0  0  0  0  0
    2.5673   -1.1605    2.1171 H   0  0  0  0  0  0  0  0  0  0  0  0
    4.5268   -0.4553    3.9215 H   0  0  0  0  0  0  0  0  0  0  0  0
    5.7343   -1.8903    3.6588 H   0  0  0  0  0  0  0  0  0  0  0  0
    6.1466   -3.3984    3.0152 H   0  0  0  0  0  0  0  0  0  0  0  0
    4.9609   -3.3128    4.2973 H   0  0  0  0  0  0  0  0  0  0  0  0
    6.6536   -3.1666    0.9420 H   0  0  0  0  0  0  0  0  0  0  0  0
    6.0363   -1.6402    0.3882 H   0  0  0  0  0  0  0  0  0  0  0  0
    6.1478   -3.0349   -0.6840 H   0  0  0  0  0  0  0  0  0  0  0  0
    5.8746   -5.5067    1.1789 H   0  0  0  0  0  0  0  0  0  0  0  0
    2.5115   -5.4746   -0.5580 H   0  0  0  0  0  0  0  0  0  0  0  0
    4.3821   -7.3878    0.3055 H   0  0  0  0  0  0  0  0  0  0  0  0
    2.9988   -9.2955    1.0464 H   0  0  0  0  0  0  0  0  0  0  0  0
    0.5941   -8.4829    1.5676 H   0  0  0  0  0  0  0  0  0  0  0  0
    1.5069   -8.8088    3.0258 H   0  0  0  0  0  0  0  0  0  0  0  0
    4.1629   -5.6370    4.0068 H   0  0  0  0  0  0  0  0  0  0  0  0
    3.7019   -7.2793    3.6227 H   0  0  0  0  0  0  0  0  0  0  0  0
    2.7466   -6.3469    4.7557 H   0  0  0  0  0  0  0  0  0  0  0  0
  1  2  2  0
  1 28  1  0
  1 29  1  0
  2  3  1  0
  2  4  1  0
  3 30  1  0
  3 31  1  0
  3 32  1  0
  4 15  1  0
  4  5  1  6
  4  6  1  0
  5 33  1  0
  7  6  1  6
  7 13  1  0
  7 17  1  0
  7  8  1  0
  8 26  1  0
  8  9  1  0
  8 34  1  6
  9 10  1  0
  9 35  1  0
  9 36  1  0
 10 11  1  0
 10 37  1  0
 10 38  1  0
 11 12  1  0
 11 13  1  0
 11 39  1  6
 12 40  1  0
 13 14  1  1
 13 15  1  0
 14 41  1  0
 14 42  1  0
 14 43  1  0
 15 16  1  6
 15 17  1  0
 16 44  1  0
 16 45  1  0
 16 46  1  0
 17 18  1  1
 17 19  1  0
 18 47  1  0
 19 26  1  0
 19 20  1  6
 19 21  1  0
 20 48  1  0
 21 22  2  0
 21 49  1  0
 22 23  1  0
 22 50  1  0
 23 24  1  0
 23 51  1  0
 23 52  1  0
 24 25  2  0
 24 26  1  0
 26 27  1  1
 27 53  1  0
 27 54  1  0
 27 55  1  0
M  END
>  <i_m_ct_stereo_status>  (108) 
1

>  <s_m_source_file>  (108) 
/var/tmp/pbs.5076255.sched01/tmpxs4nfypl/40fgi3imsd.sdf

>  <i_m_source_file_index>  (108) 
12

>  <i_lp_mmshare_version>  (108) 
48012

>  <i_f3d_flags>  (108) 
0

>  <s_epik_input>  (108) 
W0NIMl0xW0NIMl1bQ0BASF0oW09IXSlbQ0BdMihbQ0gzXSlbQ0BdKFtDSDNdKShbQ0BAXShPMykoW09IXSlDKD1bQ0gyXSlbQ0gzXSlbQ0BdNChbT0hdKVtDQF0oW09IXSkoW0NAXTUoW0NAQEhdMVtDQF0yMzQpW0NIM10pW0NIXT1bQ0hdW0NIMl1DNT1P

>  <s_epik_cmdline>  (108) 
J2VwaWtfcHl0aG9uJywgJy1waHQnLCAnMi4wJywgJy1waCcsICc3LjAnLCAnLXRuJywgJzgnLCAnLW1hJywgJzIwMCcsICctaW1hZScsICc8aW5maWxlLm1hZT4nLCAnLW9tYWUnLCAnPG91dGZpbGUubWFlPic=

>  <r_lp_tautomer_probability>  (108) 
1

>  <r_epik_Ionization_Penalty>  (108) 
2.67035e-06

>  <r_epik_Ionization_Penalty_Charging>  (108) 
0

>  <r_epik_Ionization_Penalty_Neutral>  (108) 
2.67035e-06

>  <r_epik_State_Penalty>  (108) 
-0

>  <r_epik_Charging_Adjusted_Penalty>  (108) 
0

>  <i_epik_Tot_Q>  (108) 
0

>  <i_epik_Tot_abs_Q>  (108) 
0

>  <s_lp_Force_Field>  (108) 
OPLS3e

>  <r_lp_Energy>  (108) 
136.605

>  <b_lp_Chiralities_Consistent>  (108) 
1

>  <s_lp_Variant>  (108) 
41:0-1

>  <s_i_glide_gridfile>  (108) 
pfpi4k_grid

>  <i_i_glide_lignum>  (108) 
12

>  <i_i_glide_rotatable_bonds>  (108) 
5

>  <r_i_docking_score>  (108) 
-3.26438

>  <r_i_glide_ligand_efficiency>  (108) 
-0.120903

>  <r_i_glide_ligand_efficiency_sa>  (108) 
-0.362709

>  <r_i_glide_ligand_efficiency_ln>  (108) 
-0.759895

>  <r_i_glide_gscore>  (108) 
-3.26438

>  <r_i_glide_lipo>  (108) 
-0.32069

>  <r_i_glide_hbond>  (108) 
-0.130811

>  <r_i_glide_metal>  (108) 
-0

>  <r_i_glide_rewards>  (108) 
-0.842431

>  <r_i_glide_evdw>  (108) 
-17.7709

>  <r_i_glide_ecoul>  (108) 
-7.65146

>  <r_i_glide_erotb>  (108) 
0.136601

>  <r_i_glide_esite>  (108) 
-0.0707908

>  <r_i_glide_emodel>  (108) 
-30.3051

>  <r_i_glide_energy>  (108) 
-25.4223

>  <r_i_glide_einternal>  (108) 
2.48595

>  <r_i_glide_intrahb_reward>  (108) 
-0

>  <i_i_glide_confnum>  (108) 
4

>  <i_i_glide_posenum>  (108) 
8

>  <r_i_glide_eff_state_penalty>  (108) 
0

>  <ligand_id>  (108) 
41

>  <original_smiles>  (108) 
C=C(C)C1(O)OC23C4CCC(O)C2(C)C1(C)C3(O)C1(O)C=CCC(=O)C41C

>  <smiles>  (108) 
[H]OC1(C(=C([H])[H])C([H])([H])[H])OC23C4([H])C([H])([H])C([H])([H])C([H])(O[H])C2(C([H])([H])[H])C1(C([H])([H])[H])C3(O[H])C1(O[H])C([H])=C([H])C([H])([H])C(=O)C14C([H])([H])[H]

$$$$
42:0:0
     RDKit          3D

 23 27  0  0  1  0  0  0  0  0999 V2000
   -6.2154   -5.3990   -4.2606 O   0  0  0  0  0  0  0  0  0  0  0  0
   -6.6938   -4.2609   -4.9460 C   0  0  0  0  0  0  0  0  0  0  0  0
   -8.2034   -4.4268   -5.1887 C   0  0  1  0  0  0  0  0  0  0  0  0
   -8.9702   -3.1954   -5.9619 C   0  0  2  0  0  0  0  0  0  0  0  0
   -9.9523   -3.9791   -6.2825 C   0  0  2  0  0  0  0  0  0  0  0  0
  -10.0907   -5.3949   -6.4031 C   0  0  2  0  0  0  0  0  0  0  0  0
   -8.6297   -5.6576   -6.1399 C   0  0  1  0  0  0  0  0  0  0  0  0
   -8.5933   -5.3199   -7.6570 C   0  0  2  0  0  0  0  0  0  0  0  0
   -8.6116   -3.8754   -7.5103 C   0  0  1  0  0  0  0  0  0  0  0  0
   -9.7381   -3.3485   -7.5411 C   0  0  1  0  0  0  0  0  0  0  0  0
  -10.0583   -4.9230   -7.8040 C   0  0  2  0  0  0  0  0  0  0  0  0
   -6.6378   -5.4347   -3.4052 H   0  0  0  0  0  0  0  0  0  0  0  0
   -6.5161   -3.3759   -4.3315 H   0  0  0  0  0  0  0  0  0  0  0  0
   -6.1348   -4.1461   -5.8751 H   0  0  0  0  0  0  0  0  0  0  0  0
   -8.6596   -4.5397   -4.2155 H   0  0  0  0  0  0  0  0  0  0  0  0
   -9.3202   -2.3565   -5.3661 H   0  0  0  0  0  0  0  0  0  0  0  0
  -10.9042   -3.4444   -5.8967 H   0  0  0  0  0  0  0  0  0  0  0  0
  -10.9722   -5.7515   -5.8860 H   0  0  0  0  0  0  0  0  0  0  0  0
   -8.3346   -6.6770   -5.8772 H   0  0  0  0  0  0  0  0  0  0  0  0
   -8.0324   -5.8145   -8.4486 H   0  0  0  0  0  0  0  0  0  0  0  0
   -7.6652   -3.2787   -7.5709 H   0  0  0  0  0  0  0  0  0  0  0  0
   -9.7802   -2.5909   -8.3051 H   0  0  0  0  0  0  0  0  0  0  0  0
  -10.6886   -5.3212   -8.5928 H   0  0  0  0  0  0  0  0  0  0  0  0
  1  2  1  0
  1 12  1  0
  2  3  1  0
  2 13  1  0
  2 14  1  0
  3  7  1  0
  3  4  1  0
  3 15  1  1
  4 10  1  0
  4  5  1  0
  4 16  1  1
  5  9  1  0
  5  6  1  0
  5 17  1  6
  6 11  1  0
  6  7  1  0
  6 18  1  1
  7  8  1  0
  7 19  1  6
  8 11  1  0
  8  9  1  0
  8 20  1  6
  9 10  1  0
  9 21  1  1
 10 11  1  0
 10 22  1  6
 11 23  1  6
M  END
>  <i_m_ct_stereo_status>  (109) 
1

>  <s_m_source_file>  (109) 
/var/tmp/pbs.5076255.sched01/tmpxs4nfypl/40fgi3imsd.sdf

>  <i_m_source_file_index>  (109) 
13

>  <i_lp_mmshare_version>  (109) 
48012

>  <i_f3d_flags>  (109) 
2

>  <s_epik_input>  (109) 
W09IXVtDSDJdW0NASF0xW0NAQEhdKFtDQEhdMltDSF0zW0NAQEhdMTQpW0NAQEhdNVtDQEhdM1tDSF00W0NASF0yNQ==

>  <s_epik_cmdline>  (109) 
J2VwaWtfcHl0aG9uJywgJy1waHQnLCAnMi4wJywgJy1waCcsICc3LjAnLCAnLXRuJywgJzgnLCAnLW1hJywgJzIwMCcsICctaW1hZScsICc8aW5maWxlLm1hZT4nLCAnLW9tYWUnLCAnPG91dGZpbGUubWFlPic=

>  <r_lp_tautomer_probability>  (109) 
1

>  <r_epik_Ionization_Penalty>  (109) 
1.0401e-06

>  <r_epik_Ionization_Penalty_Charging>  (109) 
0

>  <r_epik_Ionization_Penalty_Neutral>  (109) 
1.0401e-06

>  <r_epik_State_Penalty>  (109) 
-0

>  <r_epik_Charging_Adjusted_Penalty>  (109) 
0

>  <i_epik_Tot_Q>  (109) 
0

>  <i_epik_Tot_abs_Q>  (109) 
0

>  <s_lp_Force_Field>  (109) 
OPLS3e

>  <r_lp_Energy>  (109) 
377.997

>  <b_lp_Chiralities_Consistent>  (109) 
0

>  <s_lp_Variant>  (109) 
42:0-1

>  <s_i_glide_gridfile>  (109) 
pfpi4k_grid

>  <i_i_glide_lignum>  (109) 
13

>  <i_i_glide_rotatable_bonds>  (109) 
2

>  <r_i_docking_score>  (109) 
-5.09898

>  <r_i_glide_ligand_efficiency>  (109) 
-0.463544

>  <r_i_glide_ligand_efficiency_sa>  (109) 
-1.03091

>  <r_i_glide_ligand_efficiency_ln>  (109) 
-1.50063

>  <r_i_glide_gscore>  (109) 
-5.09898

>  <r_i_glide_lipo>  (109) 
-1.87221

>  <r_i_glide_hbond>  (109) 
0

>  <r_i_glide_metal>  (109) 
-0

>  <r_i_glide_rewards>  (109) 
-2.62761

>  <r_i_glide_evdw>  (109) 
-10.6735

>  <r_i_glide_ecoul>  (109) 
-0.436513

>  <r_i_glide_erotb>  (109) 
0

>  <r_i_glide_esite>  (109) 
0

>  <r_i_glide_emodel>  (109) 
-15.7161

>  <r_i_glide_energy>  (109) 
-11.11

>  <r_i_glide_einternal>  (109) 
0.109433

>  <r_i_glide_intrahb_reward>  (109) 
-0

>  <i_i_glide_confnum>  (109) 
1

>  <i_i_glide_posenum>  (109) 
4

>  <r_i_glide_eff_state_penalty>  (109) 
0

>  <ligand_id>  (109) 
42

>  <original_smiles>  (109) 
OCC1C2C3C4C1C1C3C2C41

>  <smiles>  (109) 
[H]OC([H])([H])C1([H])C2([H])C3([H])C4([H])C1([H])C1([H])C3([H])C2([H])C41[H]

$$$$
42:0:1
     RDKit          3D

 23 27  0  0  1  0  0  0  0  0999 V2000
    1.5589   -3.9251   -1.3628 O   0  0  0  0  0  0  0  0  0  0  0  0
    2.5313   -3.5260   -0.4248 C   0  0  0  0  0  0  0  0  0  0  0  0
    3.7666   -2.8682   -1.0581 C   0  0  1  0  0  0  0  0  0  0  0  0
    4.6110   -3.7232   -2.1771 C   0  0  2  0  0  0  0  0  0  0  0  0
    5.2143   -2.6216   -2.5626 C   0  0  2  0  0  0  0  0  0  0  0  0
    4.8852   -1.2247   -2.4821 C   0  0  2  0  0  0  0  0  0  0  0  0
    3.5226   -1.4997   -1.8687 C   0  0  1  0  0  0  0  0  0  0  0  0
    3.1931   -1.7027   -3.3769 C   0  0  2  0  0  0  0  0  0  0  0  0
    3.6821   -3.0560   -3.4470 C   0  0  1  0  0  0  0  0  0  0  0  0
    4.8501   -3.2147   -3.8702 C   0  0  1  0  0  0  0  0  0  0  0  0
    4.6113   -1.5847   -3.9073 C   0  0  2  0  0  0  0  0  0  0  0  0
    1.9888   -4.4646   -2.0181 H   0  0  0  0  0  0  0  0  0  0  0  0
    2.0764   -2.8301    0.2902 H   0  0  0  0  0  0  0  0  0  0  0  0
    2.8448   -4.4018    0.1434 H   0  0  0  0  0  0  0  0  0  0  0  0
    4.4106   -2.6492   -0.2144 H   0  0  0  0  0  0  0  0  0  0  0  0
    5.3280   -4.4421   -1.7794 H   0  0  0  0  0  0  0  0  0  0  0  0
    6.3434   -2.8285   -2.5303 H   0  0  0  0  0  0  0  0  0  0  0  0
    5.6707   -0.5647   -2.0941 H   0  0  0  0  0  0  0  0  0  0  0  0
    3.0371   -0.6921   -1.3456 H   0  0  0  0  0  0  0  0  0  0  0  0
    2.3113   -1.3670   -3.9312 H   0  0  0  0  0  0  0  0  0  0  0  0
    3.0001   -3.9337   -3.5359 H   0  0  0  0  0  0  0  0  0  0  0  0
    4.7064   -3.8974   -4.7068 H   0  0  0  0  0  0  0  0  0  0  0  0
    4.8100   -0.9043   -4.7440 H   0  0  0  0  0  0  0  0  0  0  0  0
  1  2  1  0
  1 12  1  0
  2  3  1  0
  2 13  1  0
  2 14  1  0
  3  7  1  0
  3  4  1  0
  3 15  1  1
  4 10  1  0
  4  5  1  0
  4 16  1  6
  5  9  1  0
  5  6  1  0
  5 17  1  6
  6 11  1  0
  6  7  1  0
  6 18  1  6
  7  8  1  0
  7 19  1  1
  8 11  1  0
  8  9  1  0
  8 20  1  6
  9 10  1  0
  9 21  1  1
 10 11  1  0
 10 22  1  6
 11 23  1  6
M  END
>  <i_m_ct_stereo_status>  (110) 
1

>  <s_m_source_file>  (110) 
/var/tmp/pbs.5076255.sched01/tmpxs4nfypl/40fgi3imsd.sdf

>  <i_m_source_file_index>  (110) 
13

>  <i_lp_mmshare_version>  (110) 
48012

>  <i_f3d_flags>  (110) 
2

>  <s_epik_input>  (110) 
W09IXVtDSDJdW0NASF0xW0NAQEhdKFtDQEhdMltDSF0zW0NAQEhdMTQpW0NAQEhdNVtDQEhdM1tDSF00W0NASF0yNQ==

>  <s_epik_cmdline>  (110) 
J2VwaWtfcHl0aG9uJywgJy1waHQnLCAnMi4wJywgJy1waCcsICc3LjAnLCAnLXRuJywgJzgnLCAnLW1hJywgJzIwMCcsICctaW1hZScsICc8aW5maWxlLm1hZT4nLCAnLW9tYWUnLCAnPG91dGZpbGUubWFlPic=

>  <r_lp_tautomer_probability>  (110) 
1

>  <r_epik_Ionization_Penalty>  (110) 
1.0401e-06

>  <r_epik_Ionization_Penalty_Charging>  (110) 
0

>  <r_epik_Ionization_Penalty_Neutral>  (110) 
1.0401e-06

>  <r_epik_State_Penalty>  (110) 
-0

>  <r_epik_Charging_Adjusted_Penalty>  (110) 
0

>  <i_epik_Tot_Q>  (110) 
0

>  <i_epik_Tot_abs_Q>  (110) 
0

>  <s_lp_Force_Field>  (110) 
OPLS3e

>  <r_lp_Energy>  (110) 
377.997

>  <b_lp_Chiralities_Consistent>  (110) 
0

>  <s_lp_Variant>  (110) 
42:0-1

>  <s_i_glide_gridfile>  (110) 
pfpi4k_grid

>  <i_i_glide_lignum>  (110) 
13

>  <i_i_glide_rotatable_bonds>  (110) 
2

>  <r_i_docking_score>  (110) 
-4.35915

>  <r_i_glide_ligand_efficiency>  (110) 
-0.396287

>  <r_i_glide_ligand_efficiency_sa>  (110) 
-0.881334

>  <r_i_glide_ligand_efficiency_ln>  (110) 
-1.2829

>  <r_i_glide_gscore>  (110) 
-4.35915

>  <r_i_glide_lipo>  (110) 
-0.665925

>  <r_i_glide_hbond>  (110) 
-0.330496

>  <r_i_glide_metal>  (110) 
-0

>  <r_i_glide_rewards>  (110) 
-2.25

>  <r_i_glide_evdw>  (110) 
-12.7493

>  <r_i_glide_ecoul>  (110) 
-3.16847

>  <r_i_glide_erotb>  (110) 
0

>  <r_i_glide_esite>  (110) 
0

>  <r_i_glide_emodel>  (110) 
-19.2037

>  <r_i_glide_energy>  (110) 
-15.9177

>  <r_i_glide_einternal>  (110) 
2.15021

>  <r_i_glide_intrahb_reward>  (110) 
-0

>  <i_i_glide_confnum>  (110) 
2

>  <i_i_glide_posenum>  (110) 
15

>  <r_i_glide_eff_state_penalty>  (110) 
0

>  <ligand_id>  (110) 
42

>  <original_smiles>  (110) 
OCC1C2C3C4C1C1C3C2C41

>  <smiles>  (110) 
[H]OC([H])([H])C1([H])C2([H])C3([H])C4([H])C1([H])C1([H])C3([H])C2([H])C41[H]

$$$$
42:0:2
     RDKit          3D

 23 27  0  0  1  0  0  0  0  0999 V2000
    2.6940   -4.2064    0.5918 O   0  0  0  0  0  0  0  0  0  0  0  0
    3.5641   -3.1828    0.1569 C   0  0  0  0  0  0  0  0  0  0  0  0
    3.8970   -3.4351   -1.3265 C   0  0  1  0  0  0  0  0  0  0  0  0
    2.7471   -2.9411   -2.3975 C   0  0  2  0  0  0  0  0  0  0  0  0
    3.6268   -2.9694   -3.3594 C   0  0  2  0  0  0  0  0  0  0  0  0
    5.0695   -2.9089   -3.4047 C   0  0  2  0  0  0  0  0  0  0  0  0
    5.1994   -2.6614   -1.9131 C   0  0  1  0  0  0  0  0  0  0  0  0
    4.8951   -1.2126   -2.4091 C   0  0  2  0  0  0  0  0  0  0  0  0
    3.4548   -1.3792   -2.4815 C   0  0  1  0  0  0  0  0  0  0  0  0
    2.9829   -1.6720   -3.6050 C   0  0  1  0  0  0  0  0  0  0  0  0
    4.5910   -1.5580   -3.8730 C   0  0  2  0  0  0  0  0  0  0  0  0
    3.0767   -5.0393    0.3631 H   0  0  0  0  0  0  0  0  0  0  0  0
    3.1091   -2.2014    0.3399 H   0  0  0  0  0  0  0  0  0  0  0  0
    4.4756   -3.2280    0.7503 H   0  0  0  0  0  0  0  0  0  0  0  0
    4.0715   -4.5004   -1.4283 H   0  0  0  0  0  0  0  0  0  0  0  0
    1.9087   -3.6199   -2.5854 H   0  0  0  0  0  0  0  0  0  0  0  0
    3.1677   -3.6160   -4.1802 H   0  0  0  0  0  0  0  0  0  0  0  0
    5.5372   -3.7123   -3.9783 H   0  0  0  0  0  0  0  0  0  0  0  0
    6.1844   -2.8651   -1.4964 H   0  0  0  0  0  0  0  0  0  0  0  0
    5.3643   -0.2867   -2.0885 H   0  0  0  0  0  0  0  0  0  0  0  0
    2.7828   -0.9566   -1.6926 H   0  0  0  0  0  0  0  0  0  0  0  0
    2.2834   -0.8589   -3.8117 H   0  0  0  0  0  0  0  0  0  0  0  0
    5.0142   -0.9687   -4.6808 H   0  0  0  0  0  0  0  0  0  0  0  0
  1  2  1  0
  1 12  1  0
  2  3  1  0
  2 13  1  0
  2 14  1  0
  3  7  1  0
  3  4  1  0
  3 15  1  1
  4 10  1  0
  4  5  1  0
  4 16  1  6
  5  9  1  0
  5  6  1  0
  5 17  1  6
  6 11  1  0
  6  7  1  0
  6 18  1  6
  7  8  1  0
  7 19  1  1
  8 11  1  0
  8  9  1  0
  8 20  1  6
  9 10  1  0
  9 21  1  1
 10 11  1  0
 10 22  1  6
 11 23  1  6
M  END
>  <i_m_ct_stereo_status>  (111) 
1

>  <s_m_source_file>  (111) 
/var/tmp/pbs.5076255.sched01/tmpxs4nfypl/40fgi3imsd.sdf

>  <i_m_source_file_index>  (111) 
13

>  <i_lp_mmshare_version>  (111) 
48012

>  <i_f3d_flags>  (111) 
2

>  <s_epik_input>  (111) 
W09IXVtDSDJdW0NASF0xW0NAQEhdKFtDQEhdMltDSF0zW0NAQEhdMTQpW0NAQEhdNVtDQEhdM1tDSF00W0NASF0yNQ==

>  <s_epik_cmdline>  (111) 
J2VwaWtfcHl0aG9uJywgJy1waHQnLCAnMi4wJywgJy1waCcsICc3LjAnLCAnLXRuJywgJzgnLCAnLW1hJywgJzIwMCcsICctaW1hZScsICc8aW5maWxlLm1hZT4nLCAnLW9tYWUnLCAnPG91dGZpbGUubWFlPic=

>  <r_lp_tautomer_probability>  (111) 
1

>  <r_epik_Ionization_Penalty>  (111) 
1.0401e-06

>  <r_epik_Ionization_Penalty_Charging>  (111) 
0

>  <r_epik_Ionization_Penalty_Neutral>  (111) 
1.0401e-06

>  <r_epik_State_Penalty>  (111) 
-0

>  <r_epik_Charging_Adjusted_Penalty>  (111) 
0

>  <i_epik_Tot_Q>  (111) 
0

>  <i_epik_Tot_abs_Q>  (111) 
0

>  <s_lp_Force_Field>  (111) 
OPLS3e

>  <r_lp_Energy>  (111) 
377.997

>  <b_lp_Chiralities_Consistent>  (111) 
0

>  <s_lp_Variant>  (111) 
42:0-1

>  <s_i_glide_gridfile>  (111) 
pfpi4k_grid

>  <i_i_glide_lignum>  (111) 
13

>  <i_i_glide_rotatable_bonds>  (111) 
2

>  <r_i_docking_score>  (111) 
-3.59017

>  <r_i_glide_ligand_efficiency>  (111) 
-0.326379

>  <r_i_glide_ligand_efficiency_sa>  (111) 
-0.72586

>  <r_i_glide_ligand_efficiency_ln>  (111) 
-1.05659

>  <r_i_glide_gscore>  (111) 
-3.59017

>  <r_i_glide_lipo>  (111) 
-0.587185

>  <r_i_glide_hbond>  (111) 
0

>  <r_i_glide_metal>  (111) 
-0

>  <r_i_glide_rewards>  (111) 
-2.25

>  <r_i_glide_evdw>  (111) 
-12.9246

>  <r_i_glide_ecoul>  (111) 
-0.711694

>  <r_i_glide_erotb>  (111) 
0

>  <r_i_glide_esite>  (111) 
0

>  <r_i_glide_emodel>  (111) 
-16.6213

>  <r_i_glide_energy>  (111) 
-13.6363

>  <r_i_glide_einternal>  (111) 
0.770515

>  <r_i_glide_intrahb_reward>  (111) 
-0

>  <i_i_glide_confnum>  (111) 
2

>  <i_i_glide_posenum>  (111) 
1

>  <r_i_glide_eff_state_penalty>  (111) 
0

>  <ligand_id>  (111) 
42

>  <original_smiles>  (111) 
OCC1C2C3C4C1C1C3C2C41

>  <smiles>  (111) 
[H]OC([H])([H])C1([H])C2([H])C3([H])C4([H])C1([H])C1([H])C3([H])C2([H])C41[H]

$$$$
43:0:0
     RDKit          3D

 22 24  0  0  1  0  0  0  0  0999 V2000
    4.6167   -7.7322    0.6189 C   0  0  0  0  0  0  0  0  0  0  0  0
    5.1027   -6.3735    0.5887 N   0  0  0  0  0  0  0  0  0  0  0  0
    6.1912   -5.9469    1.2748 N   0  0  0  0  0  0  0  0  0  0  0  0
    6.3200   -4.6893    0.9852 N   0  0  0  0  0  0  0  0  0  0  0  0
    5.2961   -4.4170    0.1183 C   0  0  0  0  0  0  0  0  0  0  0  0
    5.0948   -3.0818   -0.4496 C   0  0  0  0  0  0  0  0  0  0  0  0
    5.3946   -1.9509    0.3267 N   0  0  0  0  0  0  0  0  0  0  0  0
    5.0701   -0.8620   -0.3723 C   0  0  0  0  0  0  0  0  0  0  0  0
    4.6360   -1.2144   -1.6146 N   0  0  0  0  0  0  0  0  0  0  0  0
    4.2034   -0.4733   -2.7156 C   0  0  0  0  0  0  0  0  0  0  0  0
    3.8166   -1.2725   -3.8215 C   0  0  0  0  0  0  0  0  0  0  0  0
    3.8396   -2.6266   -3.9114 N   0  0  0  0  0  0  0  0  0  0  0  0
    4.2478   -3.3066   -2.8225 C   0  0  0  0  0  0  0  0  0  0  0  0
    4.6418   -2.6075   -1.6638 C   0  0  0  0  0  0  0  0  0  0  0  0
    4.5126   -5.4383   -0.1737 N   0  0  0  0  0  0  0  0  0  0  0  0
    5.2496   -8.3653    1.2502 H   0  0  0  0  0  0  0  0  0  0  0  0
    4.6082   -8.1253   -0.3997 H   0  0  0  0  0  0  0  0  0  0  0  0
    3.5939   -7.7372    0.9960 H   0  0  0  0  0  0  0  0  0  0  0  0
    5.1556    0.1421    0.0163 H   0  0  0  0  0  0  0  0  0  0  0  0
    4.1990    0.6049   -2.6978 H   0  0  0  0  0  0  0  0  0  0  0  0
    3.4773   -0.7766   -4.7167 H   0  0  0  0  0  0  0  0  0  0  0  0
    4.2622   -4.3859   -2.8612 H   0  0  0  0  0  0  0  0  0  0  0  0
  1  2  1  0
  1 16  1  0
  1 17  1  0
  1 18  1  0
  2 15  1  0
  2  3  1  0
  3  4  2  0
  4  5  1  0
  5  6  1  0
  5 15  2  0
  6 14  2  0
  6  7  1  0
  7  8  2  0
  8  9  1  0
  8 19  1  0
  9 14  1  0
  9 10  1  0
 10 11  2  0
 10 20  1  0
 11 12  1  0
 11 21  1  0
 12 13  2  0
 13 14  1  0
 13 22  1  0
M  END
>  <i_m_ct_stereo_status>  (112) 
1

>  <s_m_source_file>  (112) 
/var/tmp/pbs.5076255.sched01/tmpxs4nfypl/40fgi3imsd.sdf

>  <i_m_source_file_index>  (112) 
14

>  <i_lp_mmshare_version>  (112) 
48012

>  <i_f3d_flags>  (112) 
0

>  <s_epik_input>  (112) 
W0NIM11uMW5uYyhuMSktYyhuW2NIXTIpYyhuMjMpW2NIXW5bY0hdW2NIXTM=

>  <s_epik_cmdline>  (112) 
J2VwaWtfcHl0aG9uJywgJy1waHQnLCAnMi4wJywgJy1waCcsICc3LjAnLCAnLXRuJywgJzgnLCAnLW1hJywgJzIwMCcsICctaW1hZScsICc8aW5maWxlLm1hZT4nLCAnLW9tYWUnLCAnPG91dGZpbGUubWFlPic=

>  <r_lp_tautomer_probability>  (112) 
1

>  <r_epik_Ionization_Penalty>  (112) 
0.00530875

>  <r_epik_Ionization_Penalty_Charging>  (112) 
0

>  <r_epik_Ionization_Penalty_Neutral>  (112) 
0.00530875

>  <r_epik_State_Penalty>  (112) 
0.00386689

>  <r_epik_Charging_Adjusted_Penalty>  (112) 
0.00386689

>  <i_epik_Tot_Q>  (112) 
0

>  <i_epik_Tot_abs_Q>  (112) 
0

>  <s_lp_Force_Field>  (112) 
OPLS3e

>  <r_lp_Energy>  (112) 
12.1623

>  <b_lp_Chiralities_Consistent>  (112) 
1

>  <s_lp_Variant>  (112) 
43:0-1

>  <s_i_glide_gridfile>  (112) 
pfpi4k_grid

>  <i_i_glide_lignum>  (112) 
14

>  <i_i_glide_rotatable_bonds>  (112) 
1

>  <r_i_docking_score>  (112) 
-3.85129

>  <r_i_glide_ligand_efficiency>  (112) 
-0.256753

>  <r_i_glide_ligand_efficiency_sa>  (112) 
-0.633207

>  <r_i_glide_ligand_efficiency_ln>  (112) 
-1.03863

>  <r_i_glide_gscore>  (112) 
-3.85129

>  <r_i_glide_lipo>  (112) 
-0.385495

>  <r_i_glide_hbond>  (112) 
-0.136393

>  <r_i_glide_metal>  (112) 
-0

>  <r_i_glide_rewards>  (112) 
-2.31979

>  <r_i_glide_evdw>  (112) 
-22.8559

>  <r_i_glide_ecoul>  (112) 
-1.35463

>  <r_i_glide_erotb>  (112) 
0.404321

>  <r_i_glide_esite>  (112) 
-0.0679403

>  <r_i_glide_emodel>  (112) 
-29.8665

>  <r_i_glide_energy>  (112) 
-24.2106

>  <r_i_glide_einternal>  (112) 
2.09067

>  <r_i_glide_intrahb_reward>  (112) 
-0

>  <i_i_glide_confnum>  (112) 
3

>  <i_i_glide_posenum>  (112) 
3

>  <r_i_glide_eff_state_penalty>  (112) 
0

>  <ligand_id>  (112) 
43

>  <original_smiles>  (112) 
Cn1nnc(-c2ncn3ccncc23)n1

>  <smiles>  (112) 
[H]c1nc([H])c2c(-c3nnn(C([H])([H])[H])n3)nc([H])n2c1[H]

$$$$
43:0:1
     RDKit          3D

 22 24  0  0  1  0  0  0  0  0999 V2000
    8.8524   -5.5814    1.9582 C   0  0  0  0  0  0  0  0  0  0  0  0
    7.6625   -5.1687    1.2402 N   0  0  0  0  0  0  0  0  0  0  0  0
    6.6877   -6.0352    0.8808 N   0  0  0  0  0  0  0  0  0  0  0  0
    5.8100   -5.3418    0.2127 N   0  0  0  0  0  0  0  0  0  0  0  0
    6.2954   -4.0645    0.2132 C   0  0  0  0  0  0  0  0  0  0  0  0
    5.5954   -2.9334   -0.4158 C   0  0  0  0  0  0  0  0  0  0  0  0
    5.5426   -1.7043    0.2596 N   0  0  0  0  0  0  0  0  0  0  0  0
    4.8350   -0.8421   -0.4694 C   0  0  0  0  0  0  0  0  0  0  0  0
    4.4713   -1.4175   -1.6414 N   0  0  0  0  0  0  0  0  0  0  0  0
    3.7507   -0.9344   -2.7324 C   0  0  0  0  0  0  0  0  0  0  0  0
    3.6052   -1.8880   -3.7721 C   0  0  0  0  0  0  0  0  0  0  0  0
    4.0762   -3.1615   -3.7983 N   0  0  0  0  0  0  0  0  0  0  0  0
    4.7354   -3.6044   -2.7098 C   0  0  0  0  0  0  0  0  0  0  0  0
    4.9385   -2.7335   -1.6183 C   0  0  0  0  0  0  0  0  0  0  0  0
    7.4500   -3.8994    0.8435 N   0  0  0  0  0  0  0  0  0  0  0  0
    8.8319   -6.6580    2.1455 H   0  0  0  0  0  0  0  0  0  0  0  0
    8.9153   -5.0581    2.9125 H   0  0  0  0  0  0  0  0  0  0  0  0
    9.7446   -5.3511    1.3755 H   0  0  0  0  0  0  0  0  0  0  0  0
    4.6027    0.1626   -0.1708 H   0  0  0  0  0  0  0  0  0  0  0  0
    3.3906    0.0831   -2.7496 H   0  0  0  0  0  0  0  0  0  0  0  0
    3.0639   -1.5922   -4.6569 H   0  0  0  0  0  0  0  0  0  0  0  0
    5.0770   -4.6323   -2.7003 H   0  0  0  0  0  0  0  0  0  0  0  0
  1  2  1  0
  1 16  1  0
  1 17  1  0
  1 18  1  0
  2 15  1  0
  2  3  1  0
  3  4  2  0
  4  5  1  0
  5  6  1  0
  5 15  2  0
  6 14  2  0
  6  7  1  0
  7  8  2  0
  8  9  1  0
  8 19  1  0
  9 14  1  0
  9 10  1  0
 10 11  2  0
 10 20  1  0
 11 12  1  0
 11 21  1  0
 12 13  2  0
 13 14  1  0
 13 22  1  0
M  END
>  <i_m_ct_stereo_status>  (113) 
1

>  <s_m_source_file>  (113) 
/var/tmp/pbs.5076255.sched01/tmpxs4nfypl/40fgi3imsd.sdf

>  <i_m_source_file_index>  (113) 
14

>  <i_lp_mmshare_version>  (113) 
48012

>  <i_f3d_flags>  (113) 
0

>  <s_epik_input>  (113) 
W0NIM11uMW5uYyhuMSktYyhuW2NIXTIpYyhuMjMpW2NIXW5bY0hdW2NIXTM=

>  <s_epik_cmdline>  (113) 
J2VwaWtfcHl0aG9uJywgJy1waHQnLCAnMi4wJywgJy1waCcsICc3LjAnLCAnLXRuJywgJzgnLCAnLW1hJywgJzIwMCcsICctaW1hZScsICc8aW5maWxlLm1hZT4nLCAnLW9tYWUnLCAnPG91dGZpbGUubWFlPic=

>  <r_lp_tautomer_probability>  (113) 
1

>  <r_epik_Ionization_Penalty>  (113) 
0.00530875

>  <r_epik_Ionization_Penalty_Charging>  (113) 
0

>  <r_epik_Ionization_Penalty_Neutral>  (113) 
0.00530875

>  <r_epik_State_Penalty>  (113) 
0.00386689

>  <r_epik_Charging_Adjusted_Penalty>  (113) 
0.00386689

>  <i_epik_Tot_Q>  (113) 
0

>  <i_epik_Tot_abs_Q>  (113) 
0

>  <s_lp_Force_Field>  (113) 
OPLS3e

>  <r_lp_Energy>  (113) 
12.1623

>  <b_lp_Chiralities_Consistent>  (113) 
1

>  <s_lp_Variant>  (113) 
43:0-1

>  <s_i_glide_gridfile>  (113) 
pfpi4k_grid

>  <i_i_glide_lignum>  (113) 
14

>  <i_i_glide_rotatable_bonds>  (113) 
1

>  <r_i_docking_score>  (113) 
-3.75531

>  <r_i_glide_ligand_efficiency>  (113) 
-0.250354

>  <r_i_glide_ligand_efficiency_sa>  (113) 
-0.617426

>  <r_i_glide_ligand_efficiency_ln>  (113) 
-1.01275

>  <r_i_glide_gscore>  (113) 
-3.75531

>  <r_i_glide_lipo>  (113) 
-0.206948

>  <r_i_glide_hbond>  (113) 
0

>  <r_i_glide_metal>  (113) 
-0

>  <r_i_glide_rewards>  (113) 
-2.31787

>  <r_i_glide_evdw>  (113) 
-23.6564

>  <r_i_glide_ecoul>  (113) 
-2.51684

>  <r_i_glide_erotb>  (113) 
0.404321

>  <r_i_glide_esite>  (113) 
-0.0744698

>  <r_i_glide_emodel>  (113) 
-30.7338

>  <r_i_glide_energy>  (113) 
-26.1732

>  <r_i_glide_einternal>  (113) 
2.98786

>  <r_i_glide_intrahb_reward>  (113) 
-0

>  <i_i_glide_confnum>  (113) 
3

>  <i_i_glide_posenum>  (113) 
5

>  <r_i_glide_eff_state_penalty>  (113) 
0

>  <ligand_id>  (113) 
43

>  <original_smiles>  (113) 
Cn1nnc(-c2ncn3ccncc23)n1

>  <smiles>  (113) 
[H]c1nc([H])c2c(-c3nnn(C([H])([H])[H])n3)nc([H])n2c1[H]

$$$$
43:0:2
     RDKit          3D

 22 24  0  0  1  0  0  0  0  0999 V2000
    5.4473   -4.4125   -0.2274 C   0  0  0  0  0  0  0  0  0  0  0  0
    4.2323   -5.0093    0.2861 N   0  0  0  0  0  0  0  0  0  0  0  0
    3.0582   -4.3368    0.3415 N   0  0  0  0  0  0  0  0  0  0  0  0
    2.2007   -5.1628    0.8617 N   0  0  0  0  0  0  0  0  0  0  0  0
    2.8986   -6.3111    1.1036 C   0  0  0  0  0  0  0  0  0  0  0  0
    2.2939   -7.5297    1.6853 C   0  0  0  0  0  0  0  0  0  0  0  0
    3.1003   -8.6534    1.9449 N   0  0  0  0  0  0  0  0  0  0  0  0
    2.3470   -9.6267    2.4696 C   0  0  0  0  0  0  0  0  0  0  0  0
    1.0642   -9.1996    2.5710 N   0  0  0  0  0  0  0  0  0  0  0  0
   -0.0936   -9.8292    3.0350 C   0  0  0  0  0  0  0  0  0  0  0  0
   -1.2483   -9.0098    2.9474 C   0  0  0  0  0  0  0  0  0  0  0  0
   -1.3285   -7.7302    2.4835 N   0  0  0  0  0  0  0  0  0  0  0  0
   -0.1866   -7.1643    2.0428 C   0  0  0  0  0  0  0  0  0  0  0  0
    1.0190   -7.8935    2.0803 C   0  0  0  0  0  0  0  0  0  0  0  0
    4.1779   -6.2671    0.7614 N   0  0  0  0  0  0  0  0  0  0  0  0
    5.2590   -3.3842   -0.5466 H   0  0  0  0  0  0  0  0  0  0  0  0
    5.8005   -4.9813   -1.0850 H   0  0  0  0  0  0  0  0  0  0  0  0
    6.2192   -4.4075    0.5454 H   0  0  0  0  0  0  0  0  0  0  0  0
    2.7120  -10.5988    2.7538 H   0  0  0  0  0  0  0  0  0  0  0  0
   -0.0548  -10.8387    3.4156 H   0  0  0  0  0  0  0  0  0  0  0  0
   -2.1834   -9.4239    3.2933 H   0  0  0  0  0  0  0  0  0  0  0  0
   -0.2378   -6.1595    1.6483 H   0  0  0  0  0  0  0  0  0  0  0  0
  1  2  1  0
  1 16  1  0
  1 17  1  0
  1 18  1  0
  2 15  1  0
  2  3  1  0
  3  4  2  0
  4  5  1  0
  5  6  1  0
  5 15  2  0
  6 14  2  0
  6  7  1  0
  7  8  2  0
  8  9  1  0
  8 19  1  0
  9 14  1  0
  9 10  1  0
 10 11  2  0
 10 20  1  0
 11 12  1  0
 11 21  1  0
 12 13  2  0
 13 14  1  0
 13 22  1  0
M  END
>  <i_m_ct_stereo_status>  (114) 
1

>  <s_m_source_file>  (114) 
/var/tmp/pbs.5076255.sched01/tmpxs4nfypl/40fgi3imsd.sdf

>  <i_m_source_file_index>  (114) 
14

>  <i_lp_mmshare_version>  (114) 
48012

>  <i_f3d_flags>  (114) 
0

>  <s_epik_input>  (114) 
W0NIM11uMW5uYyhuMSktYyhuW2NIXTIpYyhuMjMpW2NIXW5bY0hdW2NIXTM=

>  <s_epik_cmdline>  (114) 
J2VwaWtfcHl0aG9uJywgJy1waHQnLCAnMi4wJywgJy1waCcsICc3LjAnLCAnLXRuJywgJzgnLCAnLW1hJywgJzIwMCcsICctaW1hZScsICc8aW5maWxlLm1hZT4nLCAnLW9tYWUnLCAnPG91dGZpbGUubWFlPic=

>  <r_lp_tautomer_probability>  (114) 
1

>  <r_epik_Ionization_Penalty>  (114) 
0.00530875

>  <r_epik_Ionization_Penalty_Charging>  (114) 
0

>  <r_epik_Ionization_Penalty_Neutral>  (114) 
0.00530875

>  <r_epik_State_Penalty>  (114) 
0.00386689

>  <r_epik_Charging_Adjusted_Penalty>  (114) 
0.00386689

>  <i_epik_Tot_Q>  (114) 
0

>  <i_epik_Tot_abs_Q>  (114) 
0

>  <s_lp_Force_Field>  (114) 
OPLS3e

>  <r_lp_Energy>  (114) 
12.1623

>  <b_lp_Chiralities_Consistent>  (114) 
1

>  <s_lp_Variant>  (114) 
43:0-1

>  <s_i_glide_gridfile>  (114) 
pfpi4k_grid

>  <i_i_glide_lignum>  (114) 
14

>  <i_i_glide_rotatable_bonds>  (114) 
1

>  <r_i_docking_score>  (114) 
-3.23438

>  <r_i_glide_ligand_efficiency>  (114) 
-0.215625

>  <r_i_glide_ligand_efficiency_sa>  (114) 
-0.531778

>  <r_i_glide_ligand_efficiency_ln>  (114) 
-0.872258

>  <r_i_glide_gscore>  (114) 
-3.23438

>  <r_i_glide_lipo>  (114) 
-0.0544522

>  <r_i_glide_hbond>  (114) 
0

>  <r_i_glide_metal>  (114) 
-0

>  <r_i_glide_rewards>  (114) 
-2.15028

>  <r_i_glide_evdw>  (114) 
-21.5096

>  <r_i_glide_ecoul>  (114) 
-1.93832

>  <r_i_glide_erotb>  (114) 
0.404321

>  <r_i_glide_esite>  (114) 
-0.0677399

>  <r_i_glide_emodel>  (114) 
-29.0928

>  <r_i_glide_energy>  (114) 
-23.4479

>  <r_i_glide_einternal>  (114) 
0.0466934

>  <r_i_glide_intrahb_reward>  (114) 
-0

>  <i_i_glide_confnum>  (114) 
2

>  <i_i_glide_posenum>  (114) 
9

>  <r_i_glide_eff_state_penalty>  (114) 
0

>  <ligand_id>  (114) 
43

>  <original_smiles>  (114) 
Cn1nnc(-c2ncn3ccncc23)n1

>  <smiles>  (114) 
[H]c1nc([H])c2c(-c3nnn(C([H])([H])[H])n3)nc([H])n2c1[H]

$$$$
44:0:0
     RDKit          3D

 94 99  0  0  1  0  0  0  0  0999 V2000
    0.1226    0.9517    2.0149 C   0  0  0  0  0  0  0  0  0  0  0  0
    1.3350    0.7090    2.9228 C   0  0  0  0  0  0  0  0  0  0  0  0
    2.5033    1.5595    2.3812 C   0  0  0  0  0  0  0  0  0  0  0  0
    0.9619    1.1014    4.3538 C   0  0  0  0  0  0  0  0  0  0  0  0
    2.1036    0.8120    5.3269 C   0  0  0  0  0  0  0  0  0  0  0  0
    2.6488   -0.6495    5.3206 C   0  0  1  0  0  0  0  0  0  0  0  0
    3.9635   -0.5302    6.1373 C   0  0  0  0  0  0  0  0  0  0  0  0
    1.6534   -1.5785    6.0541 C   0  0  0  0  0  0  0  0  0  0  0  0
    2.0787   -3.0609    6.0449 C   0  0  0  0  0  0  0  0  0  0  0  0
    2.2505   -3.6162    4.6103 C   0  0  2  0  0  0  0  0  0  0  0  0
    2.5524   -5.1361    4.5188 C   0  0  0  0  0  0  0  0  0  0  0  0
    2.6494   -5.9073    5.6129 C   0  0  0  0  0  0  0  0  0  0  0  0
    2.8101   -7.4052    5.6230 C   0  0  0  0  0  0  0  0  0  0  0  0
    2.7646   -8.1473    4.2466 C   0  0  2  0  0  0  0  0  0  0  0  0
    3.3830   -9.6148    4.4133 C   0  0  1  0  0  0  0  0  0  0  0  0
    2.6835  -10.2248    5.6682 C   0  0  0  0  0  0  0  0  0  0  0  0
    3.0557  -10.5926    3.2398 C   0  0  0  0  0  0  0  0  0  0  0  0
    3.7166  -11.9807    3.3523 C   0  0  0  0  0  0  0  0  0  0  0  0
    5.2508  -11.8967    3.4825 C   0  0  1  0  0  0  0  0  0  0  0  0
    5.8154  -11.5675    2.2176 O   0  0  0  0  0  0  0  0  0  0  0  0
    5.7043  -10.9333    4.6286 C   0  0  0  0  0  0  0  0  0  0  0  0
    5.4695  -11.6415    5.9915 C   0  0  0  0  0  0  0  0  0  0  0  0
    7.2445  -10.7462    4.5678 C   0  0  0  0  0  0  0  0  0  0  0  0
    4.9512   -9.5389    4.5707 C   0  0  1  0  0  0  0  0  0  0  0  0
    5.5509   -8.5698    3.5144 C   0  0  0  0  0  0  0  0  0  0  0  0
    4.8757   -7.1845    3.3917 C   0  0  0  0  0  0  0  0  0  0  0  0
    3.3438   -7.2195    3.1083 C   0  0  1  0  0  0  0  0  0  0  0  0
    3.1202   -7.8264    1.6878 C   0  0  0  0  0  0  0  0  0  0  0  0
    2.6478   -5.7614    3.1107 C   0  0  1  0  0  0  0  0  0  0  0  0
    1.1794   -5.8779    2.6139 C   0  0  0  0  0  0  0  0  0  0  0  0
    3.4008   -4.7765    2.1441 C   0  0  0  0  0  0  0  0  0  0  0  0
    3.0829   -3.2821    2.3153 C   0  0  0  0  0  0  0  0  0  0  0  0
    3.2286   -2.7533    3.7677 C   0  0  2  0  0  0  0  0  0  0  0  0
    4.7053   -2.9758    4.2037 C   0  0  0  0  0  0  0  0  0  0  0  0
    2.8715   -1.2034    3.8546 C   0  0  1  0  0  0  0  0  0  0  0  0
    1.6914   -0.7906    2.9189 C   0  0  0  0  0  0  0  0  0  0  0  0
   -0.1611    2.0049    1.9937 H   0  0  0  0  0  0  0  0  0  0  0  0
   -0.7447    0.3726    2.3305 H   0  0  0  0  0  0  0  0  0  0  0  0
    0.3583    0.6695    0.9885 H   0  0  0  0  0  0  0  0  0  0  0  0
    3.4073    1.4567    2.9800 H   0  0  0  0  0  0  0  0  0  0  0  0
    2.2489    2.6231    2.3611 H   0  0  0  0  0  0  0  0  0  0  0  0
    2.7647    1.2568    1.3649 H   0  0  0  0  0  0  0  0  0  0  0  0
    0.6955    2.1594    4.3928 H   0  0  0  0  0  0  0  0  0  0  0  0
    0.0706    0.5574    4.6665 H   0  0  0  0  0  0  0  0  0  0  0  0
    2.9170    1.5079    5.1212 H   0  0  0  0  0  0  0  0  0  0  0  0
    1.7587    1.0712    6.3289 H   0  0  0  0  0  0  0  0  0  0  0  0
    4.2400   -1.4357    6.6685 H   0  0  0  0  0  0  0  0  0  0  0  0
    3.8878    0.2276    6.9198 H   0  0  0  0  0  0  0  0  0  0  0  0
    4.7995   -0.2388    5.5003 H   0  0  0  0  0  0  0  0  0  0  0  0
    1.5081   -1.2402    7.0826 H   0  0  0  0  0  0  0  0  0  0  0  0
    0.6759   -1.5064    5.5774 H   0  0  0  0  0  0  0  0  0  0  0  0
    2.9903   -3.2062    6.6239 H   0  0  0  0  0  0  0  0  0  0  0  0
    1.3041   -3.6267    6.5630 H   0  0  0  0  0  0  0  0  0  0  0  0
    1.2645   -3.5040    4.1638 H   0  0  0  0  0  0  0  0  0  0  0  0
    2.5869   -5.4852    6.6043 H   0  0  0  0  0  0  0  0  0  0  0  0
    3.7472   -7.5832    6.1475 H   0  0  0  0  0  0  0  0  0  0  0  0
    2.0131   -7.7758    6.2683 H   0  0  0  0  0  0  0  0  0  0  0  0
    1.7090   -8.2932    4.0205 H   0  0  0  0  0  0  0  0  0  0  0  0
    2.6729  -11.3077    5.7058 H   0  0  0  0  0  0  0  0  0  0  0  0
    1.6249   -9.9614    5.6997 H   0  0  0  0  0  0  0  0  0  0  0  0
    3.1377   -9.8912    6.6023 H   0  0  0  0  0  0  0  0  0  0  0  0
    1.9768  -10.7012    3.1211 H   0  0  0  0  0  0  0  0  0  0  0  0
    3.4262  -10.2172    2.2988 H   0  0  0  0  0  0  0  0  0  0  0  0
    3.3038  -12.5511    4.1789 H   0  0  0  0  0  0  0  0  0  0  0  0
    3.4585  -12.5850    2.4808 H   0  0  0  0  0  0  0  0  0  0  0  0
    5.6129  -12.9022    3.7079 H   0  0  0  0  0  0  0  0  0  0  0  0
    5.2059  -11.8513    1.5317 H   0  0  0  0  0  0  0  0  0  0  0  0
    5.4548  -10.9335    6.8213 H   0  0  0  0  0  0  0  0  0  0  0  0
    6.2476  -12.3755    6.2087 H   0  0  0  0  0  0  0  0  0  0  0  0
    4.5416  -12.2058    6.0269 H   0  0  0  0  0  0  0  0  0  0  0  0
    7.5902  -10.0620    5.3455 H   0  0  0  0  0  0  0  0  0  0  0  0
    7.5781  -10.3548    3.6065 H   0  0  0  0  0  0  0  0  0  0  0  0
    7.7677  -11.6952    4.7017 H   0  0  0  0  0  0  0  0  0  0  0  0
    5.1723   -9.0654    5.5242 H   0  0  0  0  0  0  0  0  0  0  0  0
    6.5910   -8.3640    3.7594 H   0  0  0  0  0  0  0  0  0  0  0  0
    5.5774   -9.0546    2.5422 H   0  0  0  0  0  0  0  0  0  0  0  0
    5.0724   -6.6236    4.3056 H   0  0  0  0  0  0  0  0  0  0  0  0
    5.4112   -6.6657    2.5984 H   0  0  0  0  0  0  0  0  0  0  0  0
    3.0572   -7.0838    0.8969 H   0  0  0  0  0  0  0  0  0  0  0  0
    2.1947   -8.4021    1.6389 H   0  0  0  0  0  0  0  0  0  0  0  0
    3.9342   -8.4615    1.3503 H   0  0  0  0  0  0  0  0  0  0  0  0
    1.0945   -6.2402    1.5908 H   0  0  0  0  0  0  0  0  0  0  0  0
    0.6783   -4.9151    2.6265 H   0  0  0  0  0  0  0  0  0  0  0  0
    0.5886   -6.5359    3.2498 H   0  0  0  0  0  0  0  0  0  0  0  0
    4.4766   -4.8732    2.2201 H   0  0  0  0  0  0  0  0  0  0  0  0
    3.1839   -5.0165    1.1046 H   0  0  0  0  0  0  0  0  0  0  0  0
    3.6970   -2.6895    1.6330 H   0  0  0  0  0  0  0  0  0  0  0  0
    2.0562   -3.1696    1.9765 H   0  0  0  0  0  0  0  0  0  0  0  0
    5.3864   -2.3269    3.6483 H   0  0  0  0  0  0  0  0  0  0  0  0
    5.0463   -3.9977    4.0532 H   0  0  0  0  0  0  0  0  0  0  0  0
    4.8731   -2.8106    5.2620 H   0  0  0  0  0  0  0  0  0  0  0  0
    3.7384   -0.6847    3.4510 H   0  0  0  0  0  0  0  0  0  0  0  0
    0.8064   -1.3562    3.2081 H   0  0  0  0  0  0  0  0  0  0  0  0
    1.9014   -1.0446    1.8807 H   0  0  0  0  0  0  0  0  0  0  0  0
  1  2  1  0
  1 37  1  0
  1 38  1  0
  1 39  1  0
  2 36  1  0
  2  3  1  0
  2  4  1  0
  3 40  1  0
  3 41  1  0
  3 42  1  0
  4  5  1  0
  4 43  1  0
  4 44  1  0
  5  6  1  0
  5 45  1  0
  5 46  1  0
  6 35  1  0
  6  7  1  1
  6  8  1  0
  7 47  1  0
  7 48  1  0
  7 49  1  0
  8  9  1  0
  8 50  1  0
  8 51  1  0
  9 10  1  0
  9 52  1  0
  9 53  1  0
 10 33  1  0
 10 11  1  0
 10 54  1  6
 11 29  1  0
 11 12  2  0
 12 13  1  0
 12 55  1  0
 13 14  1  0
 13 56  1  0
 13 57  1  0
 14 27  1  0
 14 15  1  0
 14 58  1  6
 15 24  1  0
 15 16  1  1
 15 17  1  0
 16 59  1  0
 16 60  1  0
 16 61  1  0
 17 18  1  0
 17 62  1  0
 17 63  1  0
 18 19  1  0
 18 64  1  0
 18 65  1  0
 19 20  1  0
 19 21  1  0
 19 66  1  1
 20 67  1  0
 21 22  1  0
 21 23  1  0
 21 24  1  0
 22 68  1  0
 22 69  1  0
 22 70  1  0
 23 71  1  0
 23 72  1  0
 23 73  1  0
 24 25  1  0
 24 74  1  1
 25 26  1  0
 25 75  1  0
 25 76  1  0
 26 27  1  0
 26 77  1  0
 26 78  1  0
 27 28  1  6
 27 29  1  0
 28 79  1  0
 28 80  1  0
 28 81  1  0
 29 30  1  6
 29 31  1  0
 30 82  1  0
 30 83  1  0
 30 84  1  0
 31 32  1  0
 31 85  1  0
 31 86  1  0
 32 33  1  0
 32 87  1  0
 32 88  1  0
 33 34  1  1
 33 35  1  0
 34 89  1  0
 34 90  1  0
 34 91  1  0
 35 36  1  0
 35 92  1  6
 36 93  1  0
 36 94  1  0
M  END
>  <i_m_ct_stereo_status>  (115) 
1

>  <s_m_source_file>  (115) 
/var/tmp/pbs.5076255.sched01/tmpxs4nfypl/40fgi3imsd.sdf

>  <i_m_source_file_index>  (115) 
15

>  <i_lp_mmshare_version>  (115) 
48012

>  <i_f3d_flags>  (115) 
0

>  <s_epik_input>  (115) 
W0NIMl0xW0NIMl1DKFtDSDNdKShbQ0gzXSlbQ0gyXVtDQEBIXShbQ0BAXTEyW0NIM10pW0NAQF0zKFtDSDNdKVtDQEhdKFtDSDJdW0NIMl0yKUM9NFtDQEBdKFtDSDNdKShbQ0gyXVtDSDJdMylbQ0BdNShbQ0gzXSlbQ0BIXShbQ0gyXVtDSF00KVtDQF02KFtDSDNdKVtDQEhdKFtDSDJdW0NIMl01KUMoW0NIM10pKFtDSDNdKVtDQEhdKFtPSF0pW0NIMl1bQ0gyXTY=

>  <s_epik_cmdline>  (115) 
J2VwaWtfcHl0aG9uJywgJy1waHQnLCAnMi4wJywgJy1waCcsICc3LjAnLCAnLXRuJywgJzgnLCAnLW1hJywgJzIwMCcsICctaW1hZScsICc8aW5maWxlLm1hZT4nLCAnLW9tYWUnLCAnPG91dGZpbGUubWFlPic=

>  <r_lp_tautomer_probability>  (115) 
1

>  <r_epik_Ionization_Penalty>  (115) 
2.97739e-06

>  <r_epik_Ionization_Penalty_Charging>  (115) 
0

>  <r_epik_Ionization_Penalty_Neutral>  (115) 
2.97739e-06

>  <r_epik_State_Penalty>  (115) 
-0

>  <r_epik_Charging_Adjusted_Penalty>  (115) 
0

>  <i_epik_Tot_Q>  (115) 
0

>  <i_epik_Tot_abs_Q>  (115) 
0

>  <s_lp_Force_Field>  (115) 
OPLS3e

>  <r_lp_Energy>  (115) 
121.047

>  <b_lp_Chiralities_Consistent>  (115) 
1

>  <s_lp_Variant>  (115) 
44:0-1

>  <s_i_glide_gridfile>  (115) 
pfpi4k_grid

>  <i_i_glide_lignum>  (115) 
15

>  <i_i_glide_rotatable_bonds>  (115) 
1

>  <r_i_docking_score>  (115) 
-2.43617

>  <r_i_glide_ligand_efficiency>  (115) 
-0.0676715

>  <r_i_glide_ligand_efficiency_sa>  (115) 
-0.223446

>  <r_i_glide_ligand_efficiency_ln>  (115) 
-0.531507

>  <r_i_glide_gscore>  (115) 
-2.43617

>  <r_i_glide_lipo>  (115) 
-0.0606679

>  <r_i_glide_hbond>  (115) 
-0.16

>  <r_i_glide_metal>  (115) 
-0

>  <r_i_glide_rewards>  (115) 
-0.0352199

>  <r_i_glide_evdw>  (115) 
-25.2767

>  <r_i_glide_ecoul>  (115) 
-6.10965

>  <r_i_glide_erotb>  (115) 
0

>  <r_i_glide_esite>  (115) 
0

>  <r_i_glide_emodel>  (115) 
-35.6412

>  <r_i_glide_energy>  (115) 
-31.3864

>  <r_i_glide_einternal>  (115) 
1.13412

>  <r_i_glide_intrahb_reward>  (115) 
-0

>  <i_i_glide_confnum>  (115) 
2

>  <i_i_glide_posenum>  (115) 
2

>  <r_i_glide_eff_state_penalty>  (115) 
0

>  <ligand_id>  (115) 
44

>  <original_smiles>  (115) 
CC1(C)CCC2(C)CCC3C4=CCC5C6(C)CCC(O)C(C)(C)C6CCC5(C)C4(C)CCC3(C)C2C1

>  <smiles>  (115) 
[H]OC1([H])C([H])([H])C([H])([H])C2(C([H])([H])[H])C([H])(C([H])([H])C([H])([H])C3(C([H])([H])[H])C2([H])C([H])([H])C([H])=C2C4([H])C([H])([H])C([H])([H])C5(C([H])([H])[H])C([H])([H])C([H])([H])C(C([H])([H])[H])(C([H])([H])[H])C([H])([H])C5([H])C4(C([H])([H])[H])C([H])([H])C([H])([H])C23C([H])([H])[H])C1(C([H])([H])[H])C([H])([H])[H]

$$$$
44:0:1
     RDKit          3D

 94 99  0  0  1  0  0  0  0  0999 V2000
    4.9941  -10.7979    5.1813 C   0  0  0  0  0  0  0  0  0  0  0  0
    3.7293  -10.4591    4.3671 C   0  0  0  0  0  0  0  0  0  0  0  0
    3.9516  -10.9580    2.9238 C   0  0  0  0  0  0  0  0  0  0  0  0
    2.5192  -11.1377    5.0169 C   0  0  0  0  0  0  0  0  0  0  0  0
    1.2162  -10.7748    4.3054 C   0  0  0  0  0  0  0  0  0  0  0  0
    0.9268   -9.2503    4.1532 C   0  0  1  0  0  0  0  0  0  0  0  0
   -0.2416   -9.2176    3.1318 C   0  0  0  0  0  0  0  0  0  0  0  0
    0.4612   -8.6669    5.5095 C   0  0  0  0  0  0  0  0  0  0  0  0
    0.2143   -7.1454    5.4712 C   0  0  0  0  0  0  0  0  0  0  0  0
    1.4748   -6.3544    5.0406 C   0  0  2  0  0  0  0  0  0  0  0  0
    1.3442   -4.8102    5.1045 C   0  0  0  0  0  0  0  0  0  0  0  0
    0.2152   -4.2090    5.5114 C   0  0  0  0  0  0  0  0  0  0  0  0
    0.0260   -2.7308    5.7261 C   0  0  0  0  0  0  0  0  0  0  0  0
    1.2837   -1.8133    5.5609 C   0  0  2  0  0  0  0  0  0  0  0  0
    0.8138   -0.2923    5.3892 C   0  0  1  0  0  0  0  0  0  0  0  0
   -0.2120   -0.0380    6.5364 C   0  0  0  0  0  0  0  0  0  0  0  0
    1.9476    0.7635    5.5930 C   0  0  0  0  0  0  0  0  0  0  0  0
    1.5348    2.2299    5.3441 C   0  0  0  0  0  0  0  0  0  0  0  0
    0.9123    2.4401    3.9521 C   0  0  1  0  0  0  0  0  0  0  0  0
    1.9461    2.4469    2.9878 O   0  0  0  0  0  0  0  0  0  0  0  0
   -0.2195    1.4199    3.6164 C   0  0  0  0  0  0  0  0  0  0  0  0
   -1.4967    1.8497    4.3865 C   0  0  0  0  0  0  0  0  0  0  0  0
   -0.6173    1.5499    2.1266 C   0  0  0  0  0  0  0  0  0  0  0  0
    0.1872   -0.0728    3.9598 C   0  0  1  0  0  0  0  0  0  0  0  0
    1.0894   -0.7185    2.8710 C   0  0  0  0  0  0  0  0  0  0  0  0
    1.5230   -2.1781    3.1278 C   0  0  0  0  0  0  0  0  0  0  0  0
    2.2623   -2.4170    4.4772 C   0  0  1  0  0  0  0  0  0  0  0  0
    3.6274   -1.6609    4.4304 C   0  0  0  0  0  0  0  0  0  0  0  0
    2.5989   -3.9712    4.7705 C   0  0  1  0  0  0  0  0  0  0  0  0
    3.5164   -4.0930    6.0229 C   0  0  0  0  0  0  0  0  0  0  0  0
    3.3602   -4.6199    3.5565 C   0  0  0  0  0  0  0  0  0  0  0  0
    3.4213   -6.1562    3.5433 C   0  0  0  0  0  0  0  0  0  0  0  0
    2.0439   -6.8610    3.6857 C   0  0  2  0  0  0  0  0  0  0  0  0
    1.1563   -6.4052    2.4930 C   0  0  0  0  0  0  0  0  0  0  0  0
    2.1996   -8.4456    3.6649 C   0  0  1  0  0  0  0  0  0  0  0  0
    3.4850   -8.9388    4.4040 C   0  0  0  0  0  0  0  0  0  0  0  0
    5.1793  -11.8741    5.1929 H   0  0  0  0  0  0  0  0  0  0  0  0
    4.9036  -10.4689    6.2171 H   0  0  0  0  0  0  0  0  0  0  0  0
    5.8776  -10.3176    4.7553 H   0  0  0  0  0  0  0  0  0  0  0  0
    3.0952  -10.7670    2.2734 H   0  0  0  0  0  0  0  0  0  0  0  0
    4.1253  -12.0374    2.9006 H   0  0  0  0  0  0  0  0  0  0  0  0
    4.8129  -10.4713    2.4592 H   0  0  0  0  0  0  0  0  0  0  0  0
    2.6446  -12.2217    5.0247 H   0  0  0  0  0  0  0  0  0  0  0  0
    2.4505  -10.8476    6.0654 H   0  0  0  0  0  0  0  0  0  0  0  0
    1.2135  -11.2539    3.3274 H   0  0  0  0  0  0  0  0  0  0  0  0
    0.3984  -11.2511    4.8483 H   0  0  0  0  0  0  0  0  0  0  0  0
   -0.9082   -8.3699    3.2461 H   0  0  0  0  0  0  0  0  0  0  0  0
   -0.8943  -10.0834    3.2467 H   0  0  0  0  0  0  0  0  0  0  0  0
    0.1258   -9.2355    2.1060 H   0  0  0  0  0  0  0  0  0  0  0  0
   -0.4373   -9.1846    5.8499 H   0  0  0  0  0  0  0  0  0  0  0  0
    1.2182   -8.8712    6.2679 H   0  0  0  0  0  0  0  0  0  0  0  0
   -0.6276   -6.9101    4.8244 H   0  0  0  0  0  0  0  0  0  0  0  0
   -0.0788   -6.8398    6.4759 H   0  0  0  0  0  0  0  0  0  0  0  0
    2.2122   -6.6009    5.8036 H   0  0  0  0  0  0  0  0  0  0  0  0
   -0.6583   -4.7917    5.7558 H   0  0  0  0  0  0  0  0  0  0  0  0
   -0.7729   -2.4470    5.0445 H   0  0  0  0  0  0  0  0  0  0  0  0
   -0.3707   -2.6368    6.7357 H   0  0  0  0  0  0  0  0  0  0  0  0
    1.8167   -1.8582    6.5105 H   0  0  0  0  0  0  0  0  0  0  0  0
   -0.3337    1.0029    6.8144 H   0  0  0  0  0  0  0  0  0  0  0  0
    0.1112   -0.5175    7.4611 H   0  0  0  0  0  0  0  0  0  0  0  0
   -1.2046   -0.4117    6.2871 H   0  0  0  0  0  0  0  0  0  0  0  0
    2.3855    0.6631    6.5855 H   0  0  0  0  0  0  0  0  0  0  0  0
    2.7529    0.6142    4.8909 H   0  0  0  0  0  0  0  0  0  0  0  0
    0.8511    2.5859    6.1098 H   0  0  0  0  0  0  0  0  0  0  0  0
    2.4097    2.8734    5.4441 H   0  0  0  0  0  0  0  0  0  0  0  0
    0.4979    3.4490    3.9147 H   0  0  0  0  0  0  0  0  0  0  0  0
    1.5990    2.8199    2.1909 H   0  0  0  0  0  0  0  0  0  0  0  0
   -2.2158    1.0342    4.4574 H   0  0  0  0  0  0  0  0  0  0  0  0
   -2.0052    2.6814    3.8967 H   0  0  0  0  0  0  0  0  0  0  0  0
   -1.2896    2.2075    5.3908 H   0  0  0  0  0  0  0  0  0  0  0  0
   -1.4105    0.8514    1.8547 H   0  0  0  0  0  0  0  0  0  0  0  0
    0.2125    1.3914    1.4363 H   0  0  0  0  0  0  0  0  0  0  0  0
   -0.9839    2.5523    1.9231 H   0  0  0  0  0  0  0  0  0  0  0  0
   -0.7444   -0.6335    3.9076 H   0  0  0  0  0  0  0  0  0  0  0  0
    0.5653   -0.7383    1.9184 H   0  0  0  0  0  0  0  0  0  0  0  0
    1.9593   -0.0945    2.6908 H   0  0  0  0  0  0  0  0  0  0  0  0
    0.6426   -2.8172    3.0671 H   0  0  0  0  0  0  0  0  0  0  0  0
    2.1487   -2.4496    2.2818 H   0  0  0  0  0  0  0  0  0  0  0  0
    4.4571   -2.2695    4.0865 H   0  0  0  0  0  0  0  0  0  0  0  0
    3.9117   -1.2904    5.4155 H   0  0  0  0  0  0  0  0  0  0  0  0
    3.6446   -0.8293    3.7337 H   0  0  0  0  0  0  0  0  0  0  0  0
    4.4788   -3.5998    5.9029 H   0  0  0  0  0  0  0  0  0  0  0  0
    3.7548   -5.1271    6.2604 H   0  0  0  0  0  0  0  0  0  0  0  0
    3.0441   -3.6764    6.9117 H   0  0  0  0  0  0  0  0  0  0  0  0
    2.9505   -4.3136    2.6013 H   0  0  0  0  0  0  0  0  0  0  0  0
    4.3926   -4.2773    3.5285 H   0  0  0  0  0  0  0  0  0  0  0  0
    3.9255   -6.4968    2.6370 H   0  0  0  0  0  0  0  0  0  0  0  0
    4.0726   -6.4253    4.3727 H   0  0  0  0  0  0  0  0  0  0  0  0
    1.5264   -6.8087    1.5483 H   0  0  0  0  0  0  0  0  0  0  0  0
    1.1083   -5.3243    2.3872 H   0  0  0  0  0  0  0  0  0  0  0  0
    0.1203   -6.7001    2.5958 H   0  0  0  0  0  0  0  0  0  0  0  0
    2.3594   -8.7087    2.6194 H   0  0  0  0  0  0  0  0  0  0  0  0
    3.4400   -8.6216    5.4454 H   0  0  0  0  0  0  0  0  0  0  0  0
    4.3794   -8.4890    3.9795 H   0  0  0  0  0  0  0  0  0  0  0  0
  1  2  1  0
  1 37  1  0
  1 38  1  0
  1 39  1  0
  2 36  1  0
  2  3  1  0
  2  4  1  0
  3 40  1  0
  3 41  1  0
  3 42  1  0
  4  5  1  0
  4 43  1  0
  4 44  1  0
  5  6  1  0
  5 45  1  0
  5 46  1  0
  6 35  1  0
  6  7  1  6
  6  8  1  0
  7 47  1  0
  7 48  1  0
  7 49  1  0
  8  9  1  0
  8 50  1  0
  8 51  1  0
  9 10  1  0
  9 52  1  0
  9 53  1  0
 10 33  1  0
 10 11  1  0
 10 54  1  1
 11 29  1  0
 11 12  2  0
 12 13  1  0
 12 55  1  0
 13 14  1  0
 13 56  1  0
 13 57  1  0
 14 27  1  0
 14 15  1  0
 14 58  1  1
 15 24  1  0
 15 16  1  1
 15 17  1  0
 16 59  1  0
 16 60  1  0
 16 61  1  0
 17 18  1  0
 17 62  1  0
 17 63  1  0
 18 19  1  0
 18 64  1  0
 18 65  1  0
 19 20  1  0
 19 21  1  0
 19 66  1  1
 20 67  1  0
 21 22  1  0
 21 23  1  0
 21 24  1  0
 22 68  1  0
 22 69  1  0
 22 70  1  0
 23 71  1  0
 23 72  1  0
 23 73  1  0
 24 25  1  0
 24 74  1  1
 25 26  1  0
 25 75  1  0
 25 76  1  0
 26 27  1  0
 26 77  1  0
 26 78  1  0
 27 28  1  6
 27 29  1  0
 28 79  1  0
 28 80  1  0
 28 81  1  0
 29 30  1  1
 29 31  1  0
 30 82  1  0
 30 83  1  0
 30 84  1  0
 31 32  1  0
 31 85  1  0
 31 86  1  0
 32 33  1  0
 32 87  1  0
 32 88  1  0
 33 34  1  6
 33 35  1  0
 34 89  1  0
 34 90  1  0
 34 91  1  0
 35 36  1  0
 35 92  1  6
 36 93  1  0
 36 94  1  0
M  END
>  <i_m_ct_stereo_status>  (116) 
1

>  <s_m_source_file>  (116) 
/var/tmp/pbs.5076255.sched01/tmpxs4nfypl/40fgi3imsd.sdf

>  <i_m_source_file_index>  (116) 
15

>  <i_lp_mmshare_version>  (116) 
48012

>  <i_f3d_flags>  (116) 
0

>  <s_epik_input>  (116) 
W0NIMl0xW0NIMl1DKFtDSDNdKShbQ0gzXSlbQ0gyXVtDQEBIXShbQ0BAXTEyW0NIM10pW0NAQF0zKFtDSDNdKVtDQEhdKFtDSDJdW0NIMl0yKUM9NFtDQEBdKFtDSDNdKShbQ0gyXVtDSDJdMylbQ0BdNShbQ0gzXSlbQ0BIXShbQ0gyXVtDSF00KVtDQF02KFtDSDNdKVtDQEhdKFtDSDJdW0NIMl01KUMoW0NIM10pKFtDSDNdKVtDQEhdKFtPSF0pW0NIMl1bQ0gyXTY=

>  <s_epik_cmdline>  (116) 
J2VwaWtfcHl0aG9uJywgJy1waHQnLCAnMi4wJywgJy1waCcsICc3LjAnLCAnLXRuJywgJzgnLCAnLW1hJywgJzIwMCcsICctaW1hZScsICc8aW5maWxlLm1hZT4nLCAnLW9tYWUnLCAnPG91dGZpbGUubWFlPic=

>  <r_lp_tautomer_probability>  (116) 
1

>  <r_epik_Ionization_Penalty>  (116) 
2.97739e-06

>  <r_epik_Ionization_Penalty_Charging>  (116) 
0

>  <r_epik_Ionization_Penalty_Neutral>  (116) 
2.97739e-06

>  <r_epik_State_Penalty>  (116) 
-0

>  <r_epik_Charging_Adjusted_Penalty>  (116) 
0

>  <i_epik_Tot_Q>  (116) 
0

>  <i_epik_Tot_abs_Q>  (116) 
0

>  <s_lp_Force_Field>  (116) 
OPLS3e

>  <r_lp_Energy>  (116) 
121.047

>  <b_lp_Chiralities_Consistent>  (116) 
1

>  <s_lp_Variant>  (116) 
44:0-1

>  <s_i_glide_gridfile>  (116) 
pfpi4k_grid

>  <i_i_glide_lignum>  (116) 
15

>  <i_i_glide_rotatable_bonds>  (116) 
1

>  <r_i_docking_score>  (116) 
-1.75256

>  <r_i_glide_ligand_efficiency>  (116) 
-0.0486823

>  <r_i_glide_ligand_efficiency_sa>  (116) 
-0.160745

>  <r_i_glide_ligand_efficiency_ln>  (116) 
-0.382361

>  <r_i_glide_gscore>  (116) 
-1.75256

>  <r_i_glide_lipo>  (116) 
-0.0240691

>  <r_i_glide_hbond>  (116) 
0

>  <r_i_glide_metal>  (116) 
-0

>  <r_i_glide_rewards>  (116) 
-0.0352199

>  <r_i_glide_evdw>  (116) 
-32.8004

>  <r_i_glide_ecoul>  (116) 
-0.355029

>  <r_i_glide_erotb>  (116) 
0

>  <r_i_glide_esite>  (116) 
0

>  <r_i_glide_emodel>  (116) 
-36.4792

>  <r_i_glide_energy>  (116) 
-33.1554

>  <r_i_glide_einternal>  (116) 
0.412261

>  <r_i_glide_intrahb_reward>  (116) 
-0

>  <i_i_glide_confnum>  (116) 
1

>  <i_i_glide_posenum>  (116) 
14

>  <r_i_glide_eff_state_penalty>  (116) 
0

>  <ligand_id>  (116) 
44

>  <original_smiles>  (116) 
CC1(C)CCC2(C)CCC3C4=CCC5C6(C)CCC(O)C(C)(C)C6CCC5(C)C4(C)CCC3(C)C2C1

>  <smiles>  (116) 
[H]OC1([H])C([H])([H])C([H])([H])C2(C([H])([H])[H])C([H])(C([H])([H])C([H])([H])C3(C([H])([H])[H])C2([H])C([H])([H])C([H])=C2C4([H])C([H])([H])C([H])([H])C5(C([H])([H])[H])C([H])([H])C([H])([H])C(C([H])([H])[H])(C([H])([H])[H])C([H])([H])C5([H])C4(C([H])([H])[H])C([H])([H])C([H])([H])C23C([H])([H])[H])C1(C([H])([H])[H])C([H])([H])[H]

$$$$
44:0:2
     RDKit          3D

 94 99  0  0  1  0  0  0  0  0999 V2000
    5.0745  -11.0461    5.2000 C   0  0  0  0  0  0  0  0  0  0  0  0
    3.8193  -10.6974    4.3762 C   0  0  0  0  0  0  0  0  0  0  0  0
    4.0429  -11.2105    2.9416 C   0  0  0  0  0  0  0  0  0  0  0  0
    2.5988  -11.3587    5.0210 C   0  0  0  0  0  0  0  0  0  0  0  0
    1.3024  -10.9865    4.3006 C   0  0  0  0  0  0  0  0  0  0  0  0
    1.0321   -9.4597    4.1344 C   0  0  1  0  0  0  0  0  0  0  0  0
   -0.1301   -9.4139    3.1076 C   0  0  0  0  0  0  0  0  0  0  0  0
    0.5675   -8.8607    5.4839 C   0  0  0  0  0  0  0  0  0  0  0  0
    0.3359   -7.3363    5.4306 C   0  0  0  0  0  0  0  0  0  0  0  0
    1.6059   -6.5638    4.9984 C   0  0  2  0  0  0  0  0  0  0  0  0
    1.4927   -5.0185    5.0474 C   0  0  0  0  0  0  0  0  0  0  0  0
    0.3673   -4.4010    5.4418 C   0  0  0  0  0  0  0  0  0  0  0  0
    0.1977   -2.9186    5.6436 C   0  0  0  0  0  0  0  0  0  0  0  0
    1.4665   -2.0182    5.4796 C   0  0  2  0  0  0  0  0  0  0  0  0
    1.0154   -0.4917    5.2952 C   0  0  1  0  0  0  0  0  0  0  0  0
   -0.0147   -0.2179    6.4335 C   0  0  0  0  0  0  0  0  0  0  0  0
    2.1593    0.5533    5.4984 C   0  0  0  0  0  0  0  0  0  0  0  0
    1.7638    2.0241    5.2386 C   0  0  0  0  0  0  0  0  0  0  0  0
    1.1584    2.2258    3.8377 C   0  0  1  0  0  0  0  0  0  0  0  0
    2.2169    2.1768    2.8990 O   0  0  0  0  0  0  0  0  0  0  0  0
    0.0124    1.2181    3.5081 C   0  0  0  0  0  0  0  0  0  0  0  0
   -1.2687    1.6678    4.2618 C   0  0  0  0  0  0  0  0  0  0  0  0
   -0.3743    1.3473    2.0175 C   0  0  0  0  0  0  0  0  0  0  0  0
    0.3999   -0.2771    3.8616 C   0  0  1  0  0  0  0  0  0  0  0  0
    1.2985   -0.9432    2.7807 C   0  0  0  0  0  0  0  0  0  0  0  0
    1.7187   -2.4043    3.0508 C   0  0  0  0  0  0  0  0  0  0  0  0
    2.4445   -2.6415    4.4075 C   0  0  1  0  0  0  0  0  0  0  0  0
    3.8184   -1.9020    4.3625 C   0  0  0  0  0  0  0  0  0  0  0  0
    2.7597   -4.1974    4.7153 C   0  0  1  0  0  0  0  0  0  0  0  0
    3.6681   -4.3185    5.9733 C   0  0  0  0  0  0  0  0  0  0  0  0
    3.5208   -4.8648    3.5110 C   0  0  0  0  0  0  0  0  0  0  0  0
    3.5632   -6.4012    3.5119 C   0  0  0  0  0  0  0  0  0  0  0  0
    2.1775   -7.0888    3.6509 C   0  0  2  0  0  0  0  0  0  0  0  0
    1.3021   -6.6338    2.4486 C   0  0  0  0  0  0  0  0  0  0  0  0
    2.3160   -8.6752    3.6451 C   0  0  1  0  0  0  0  0  0  0  0  0
    3.5921   -9.1755    4.3964 C   0  0  0  0  0  0  0  0  0  0  0  0
    5.2449  -12.1240    5.2198 H   0  0  0  0  0  0  0  0  0  0  0  0
    4.9823  -10.7068    6.2320 H   0  0  0  0  0  0  0  0  0  0  0  0
    5.9670  -10.5814    4.7747 H   0  0  0  0  0  0  0  0  0  0  0  0
    3.1897  -11.0166    2.2906 H   0  0  0  0  0  0  0  0  0  0  0  0
    4.2060  -12.2924    2.9266 H   0  0  0  0  0  0  0  0  0  0  0  0
    4.9107  -10.7344    2.4766 H   0  0  0  0  0  0  0  0  0  0  0  0
    2.7130  -12.4441    5.0376 H   0  0  0  0  0  0  0  0  0  0  0  0
    2.5273  -11.0566    6.0654 H   0  0  0  0  0  0  0  0  0  0  0  0
    1.2948  -11.4743    3.3257 H   0  0  0  0  0  0  0  0  0  0  0  0
    0.4772  -11.4480    4.8442 H   0  0  0  0  0  0  0  0  0  0  0  0
   -0.7838   -8.5562    3.2100 H   0  0  0  0  0  0  0  0  0  0  0  0
   -0.8035  -10.2593    3.2314 H   0  0  0  0  0  0  0  0  0  0  0  0
    0.2430   -9.4527    2.0835 H   0  0  0  0  0  0  0  0  0  0  0  0
   -0.3406   -9.3656    5.8219 H   0  0  0  0  0  0  0  0  0  0  0  0
    1.3159   -9.0690    6.2496 H   0  0  0  0  0  0  0  0  0  0  0  0
   -0.5000   -7.0973    4.7783 H   0  0  0  0  0  0  0  0  0  0  0  0
    0.0403   -7.0185    6.4307 H   0  0  0  0  0  0  0  0  0  0  0  0
    2.3364   -6.8114    5.7677 H   0  0  0  0  0  0  0  0  0  0  0  0
   -0.5192   -4.9675    5.6829 H   0  0  0  0  0  0  0  0  0  0  0  0
   -0.5936   -2.6308    4.9549 H   0  0  0  0  0  0  0  0  0  0  0  0
   -0.2027   -2.8117    6.6515 H   0  0  0  0  0  0  0  0  0  0  0  0
    1.9933   -2.0615    6.4339 H   0  0  0  0  0  0  0  0  0  0  0  0
   -0.1269    0.8267    6.7006 H   0  0  0  0  0  0  0  0  0  0  0  0
    0.2963   -0.6933    7.3645 H   0  0  0  0  0  0  0  0  0  0  0  0
   -1.0107   -0.5839    6.1823 H   0  0  0  0  0  0  0  0  0  0  0  0
    2.5913    0.4534    6.4928 H   0  0  0  0  0  0  0  0  0  0  0  0
    2.9666    0.3859    4.8028 H   0  0  0  0  0  0  0  0  0  0  0  0
    1.0778    2.3932    5.9939 H   0  0  0  0  0  0  0  0  0  0  0  0
    2.6453    2.6564    5.3439 H   0  0  0  0  0  0  0  0  0  0  0  0
    0.7561    3.2389    3.7717 H   0  0  0  0  0  0  0  0  0  0  0  0
    2.7382    2.9573    2.9793 H   0  0  0  0  0  0  0  0  0  0  0  0
   -2.0051    0.8657    4.3298 H   0  0  0  0  0  0  0  0  0  0  0  0
   -1.7563    2.5035    3.7580 H   0  0  0  0  0  0  0  0  0  0  0  0
   -1.0662    2.0316    5.2660 H   0  0  0  0  0  0  0  0  0  0  0  0
   -1.1733    0.6512    1.7434 H   0  0  0  0  0  0  0  0  0  0  0  0
    0.4631    1.1679    1.3401 H   0  0  0  0  0  0  0  0  0  0  0  0
   -0.7226    2.3507    1.7906 H   0  0  0  0  0  0  0  0  0  0  0  0
   -0.5370   -0.8269    3.8066 H   0  0  0  0  0  0  0  0  0  0  0  0
    0.7705   -0.9669    1.8291 H   0  0  0  0  0  0  0  0  0  0  0  0
    2.1753   -0.3319    2.5944 H   0  0  0  0  0  0  0  0  0  0  0  0
    0.8328   -3.0364    2.9889 H   0  0  0  0  0  0  0  0  0  0  0  0
    2.3481   -2.6889    2.2103 H   0  0  0  0  0  0  0  0  0  0  0  0
    4.6441   -2.5232    4.0290 H   0  0  0  0  0  0  0  0  0  0  0  0
    4.1017   -1.5253    5.3461 H   0  0  0  0  0  0  0  0  0  0  0  0
    3.8490   -1.0771    3.6571 H   0  0  0  0  0  0  0  0  0  0  0  0
    4.6383   -3.8398    5.8538 H   0  0  0  0  0  0  0  0  0  0  0  0
    3.8937   -5.3526    6.2214 H   0  0  0  0  0  0  0  0  0  0  0  0
    3.1979   -3.8881    6.8549 H   0  0  0  0  0  0  0  0  0  0  0  0
    3.1204   -4.5619    2.5505 H   0  0  0  0  0  0  0  0  0  0  0  0
    4.5581   -4.5342    3.4865 H   0  0  0  0  0  0  0  0  0  0  0  0
    4.0695   -6.7558    2.6114 H   0  0  0  0  0  0  0  0  0  0  0  0
    4.2059   -6.6704    4.3465 H   0  0  0  0  0  0  0  0  0  0  0  0
    1.6726   -7.0508    1.5097 H   0  0  0  0  0  0  0  0  0  0  0  0
    1.2689   -5.5536    2.3289 H   0  0  0  0  0  0  0  0  0  0  0  0
    0.2611   -6.9110    2.5460 H   0  0  0  0  0  0  0  0  0  0  0  0
    2.4780   -8.9501    2.6046 H   0  0  0  0  0  0  0  0  0  0  0  0
    3.5459   -8.8475    5.4337 H   0  0  0  0  0  0  0  0  0  0  0  0
    4.4934   -8.7410    3.9701 H   0  0  0  0  0  0  0  0  0  0  0  0
  1  2  1  0
  1 37  1  0
  1 38  1  0
  1 39  1  0
  2 36  1  0
  2  3  1  0
  2  4  1  0
  3 40  1  0
  3 41  1  0
  3 42  1  0
  4  5  1  0
  4 43  1  0
  4 44  1  0
  5  6  1  0
  5 45  1  0
  5 46  1  0
  6 35  1  0
  6  7  1  6
  6  8  1  0
  7 47  1  0
  7 48  1  0
  7 49  1  0
  8  9  1  0
  8 50  1  0
  8 51  1  0
  9 10  1  0
  9 52  1  0
  9 53  1  0
 10 33  1  0
 10 11  1  0
 10 54  1  1
 11 29  1  0
 11 12  2  0
 12 13  1  0
 12 55  1  0
 13 14  1  0
 13 56  1  0
 13 57  1  0
 14 27  1  0
 14 15  1  0
 14 58  1  1
 15 24  1  0
 15 16  1  1
 15 17  1  0
 16 59  1  0
 16 60  1  0
 16 61  1  0
 17 18  1  0
 17 62  1  0
 17 63  1  0
 18 19  1  0
 18 64  1  0
 18 65  1  0
 19 20  1  0
 19 21  1  0
 19 66  1  1
 20 67  1  0
 21 22  1  0
 21 23  1  0
 21 24  1  0
 22 68  1  0
 22 69  1  0
 22 70  1  0
 23 71  1  0
 23 72  1  0
 23 73  1  0
 24 25  1  0
 24 74  1  1
 25 26  1  0
 25 75  1  0
 25 76  1  0
 26 27  1  0
 26 77  1  0
 26 78  1  0
 27 28  1  6
 27 29  1  0
 28 79  1  0
 28 80  1  0
 28 81  1  0
 29 30  1  1
 29 31  1  0
 30 82  1  0
 30 83  1  0
 30 84  1  0
 31 32  1  0
 31 85  1  0
 31 86  1  0
 32 33  1  0
 32 87  1  0
 32 88  1  0
 33 34  1  6
 33 35  1  0
 34 89  1  0
 34 90  1  0
 34 91  1  0
 35 36  1  0
 35 92  1  6
 36 93  1  0
 36 94  1  0
M  END
>  <i_m_ct_stereo_status>  (117) 
1

>  <s_m_source_file>  (117) 
/var/tmp/pbs.5076255.sched01/tmpxs4nfypl/40fgi3imsd.sdf

>  <i_m_source_file_index>  (117) 
15

>  <i_lp_mmshare_version>  (117) 
48012

>  <i_f3d_flags>  (117) 
0

>  <s_epik_input>  (117) 
W0NIMl0xW0NIMl1DKFtDSDNdKShbQ0gzXSlbQ0gyXVtDQEBIXShbQ0BAXTEyW0NIM10pW0NAQF0zKFtDSDNdKVtDQEhdKFtDSDJdW0NIMl0yKUM9NFtDQEBdKFtDSDNdKShbQ0gyXVtDSDJdMylbQ0BdNShbQ0gzXSlbQ0BIXShbQ0gyXVtDSF00KVtDQF02KFtDSDNdKVtDQEhdKFtDSDJdW0NIMl01KUMoW0NIM10pKFtDSDNdKVtDQEhdKFtPSF0pW0NIMl1bQ0gyXTY=

>  <s_epik_cmdline>  (117) 
J2VwaWtfcHl0aG9uJywgJy1waHQnLCAnMi4wJywgJy1waCcsICc3LjAnLCAnLXRuJywgJzgnLCAnLW1hJywgJzIwMCcsICctaW1hZScsICc8aW5maWxlLm1hZT4nLCAnLW9tYWUnLCAnPG91dGZpbGUubWFlPic=

>  <r_lp_tautomer_probability>  (117) 
1

>  <r_epik_Ionization_Penalty>  (117) 
2.97739e-06

>  <r_epik_Ionization_Penalty_Charging>  (117) 
0

>  <r_epik_Ionization_Penalty_Neutral>  (117) 
2.97739e-06

>  <r_epik_State_Penalty>  (117) 
-0

>  <r_epik_Charging_Adjusted_Penalty>  (117) 
0

>  <i_epik_Tot_Q>  (117) 
0

>  <i_epik_Tot_abs_Q>  (117) 
0

>  <s_lp_Force_Field>  (117) 
OPLS3e

>  <r_lp_Energy>  (117) 
121.047

>  <b_lp_Chiralities_Consistent>  (117) 
1

>  <s_lp_Variant>  (117) 
44:0-1

>  <s_i_glide_gridfile>  (117) 
pfpi4k_grid

>  <i_i_glide_lignum>  (117) 
15

>  <i_i_glide_rotatable_bonds>  (117) 
1

>  <r_i_docking_score>  (117) 
-1.74635

>  <r_i_glide_ligand_efficiency>  (117) 
-0.0485097

>  <r_i_glide_ligand_efficiency_sa>  (117) 
-0.160175

>  <r_i_glide_ligand_efficiency_ln>  (117) 
-0.381006

>  <r_i_glide_gscore>  (117) 
-1.74635

>  <r_i_glide_lipo>  (117) 
-0.0558919

>  <r_i_glide_hbond>  (117) 
0

>  <r_i_glide_metal>  (117) 
-0

>  <r_i_glide_rewards>  (117) 
-0.0352199

>  <r_i_glide_evdw>  (117) 
-32.3072

>  <r_i_glide_ecoul>  (117) 
-0.265837

>  <r_i_glide_erotb>  (117) 
0

>  <r_i_glide_esite>  (117) 
0

>  <r_i_glide_emodel>  (117) 
-35.8419

>  <r_i_glide_energy>  (117) 
-32.573

>  <r_i_glide_einternal>  (117) 
0.428404

>  <r_i_glide_intrahb_reward>  (117) 
-0

>  <i_i_glide_confnum>  (117) 
2

>  <i_i_glide_posenum>  (117) 
23

>  <r_i_glide_eff_state_penalty>  (117) 
0

>  <ligand_id>  (117) 
44

>  <original_smiles>  (117) 
CC1(C)CCC2(C)CCC3C4=CCC5C6(C)CCC(O)C(C)(C)C6CCC5(C)C4(C)CCC3(C)C2C1

>  <smiles>  (117) 
[H]OC1([H])C([H])([H])C([H])([H])C2(C([H])([H])[H])C([H])(C([H])([H])C([H])([H])C3(C([H])([H])[H])C2([H])C([H])([H])C([H])=C2C4([H])C([H])([H])C([H])([H])C5(C([H])([H])[H])C([H])([H])C([H])([H])C(C([H])([H])[H])(C([H])([H])[H])C([H])([H])C5([H])C4(C([H])([H])[H])C([H])([H])C([H])([H])C23C([H])([H])[H])C1(C([H])([H])[H])C([H])([H])[H]

$$$$
46:0:0
     RDKit          3D

 52 57  0  0  1  0  0  0  0  0999 V2000
   -2.9112    2.9420    7.4922 C   0  0  0  0  0  0  0  0  0  0  0  0
   -1.6640    2.7945    6.8413 O   0  0  0  0  0  0  0  0  0  0  0  0
   -1.6006    2.6956    5.5011 C   0  0  0  0  0  0  0  0  0  0  0  0
   -2.5562    2.8390    4.7401 O   0  0  0  0  0  0  0  0  0  0  0  0
   -0.1589    2.4714    5.0014 C   0  0  2  0  0  0  0  0  0  0  0  0
    0.0349    2.6311    3.4386 C   0  0  1  0  0  0  0  0  0  0  0  0
    1.4711    2.8610    2.9058 C   0  0  0  0  0  0  0  0  0  0  0  0
    2.4373    1.9195    2.8978 C   0  0  0  0  0  0  0  0  0  0  0  0
    2.1798    0.6154    3.6077 C   0  0  1  0  0  0  0  0  0  0  0  0
    1.1045   -0.1478    2.8149 C   0  0  0  0  0  0  0  0  0  0  0  0
    1.3384   -1.1441    2.1293 O   0  0  0  0  0  0  0  0  0  0  0  0
   -0.1603    0.2421    2.9929 O   0  0  0  0  0  0  0  0  0  0  0  0
   -0.6178    1.5226    2.6134 C   0  0  0  0  0  0  0  0  0  0  0  0
    3.2811   -0.3962    4.0956 C   0  0  1  0  0  0  0  0  0  0  0  0
    4.6751   -0.3308    3.4714 C   0  0  0  0  0  0  0  0  0  0  0  0
    4.6328   -0.8276    2.1557 O   0  0  0  0  0  0  0  0  0  0  0  0
    3.0917    0.0830    5.5484 C   0  0  2  0  0  0  0  0  0  0  0  0
    2.5962   -0.4856    6.8778 C   0  0  2  0  0  0  0  0  0  0  0  0
    1.6521   -1.5035    6.7740 O   0  0  0  0  0  0  0  0  0  0  0  0
    0.4959   -1.3519    5.9619 C   0  0  1  0  0  0  0  0  0  0  0  0
   -0.4214   -2.5375    6.3030 C   0  0  0  0  0  0  0  0  0  0  0  0
   -0.2163    0.0329    6.0159 C   0  0  1  0  0  0  0  0  0  0  0  0
   -0.8415    0.1465    7.2772 O   0  0  0  0  0  0  0  0  0  0  0  0
    0.6555    1.2958    5.7254 C   0  0  2  0  0  0  0  0  0  0  0  0
    1.5316    1.7520    6.9131 C   0  0  2  0  0  0  0  0  0  0  0  0
    2.4752    2.3662    5.8459 C   0  0  0  0  0  0  0  0  0  0  0  0
    2.0502    1.0732    5.0921 C   0  0  2  0  0  0  0  0  0  0  0  0
    2.1176    0.6256    7.6346 O   0  0  0  0  0  0  0  0  0  0  0  0
   -2.7604    2.9582    8.5717 H   0  0  0  0  0  0  0  0  0  0  0  0
   -3.5816    2.1151    7.2608 H   0  0  0  0  0  0  0  0  0  0  0  0
   -3.3866    3.8732    7.1968 H   0  0  0  0  0  0  0  0  0  0  0  0
    0.2308    3.4152    5.3761 H   0  0  0  0  0  0  0  0  0  0  0  0
   -0.4839    3.5500    3.1532 H   0  0  0  0  0  0  0  0  0  0  0  0
    1.6548    3.8163    2.4381 H   0  0  0  0  0  0  0  0  0  0  0  0
    3.4100    2.1042    2.4678 H   0  0  0  0  0  0  0  0  0  0  0  0
   -1.6951    1.5397    2.7537 H   0  0  0  0  0  0  0  0  0  0  0  0
   -0.4542    1.6830    1.5469 H   0  0  0  0  0  0  0  0  0  0  0  0
    2.9142   -1.4260    4.0850 H   0  0  0  0  0  0  0  0  0  0  0  0
    5.0613    0.6876    3.4622 H   0  0  0  0  0  0  0  0  0  0  0  0
    5.3775   -0.9346    4.0462 H   0  0  0  0  0  0  0  0  0  0  0  0
    5.4992   -0.7783    1.7736 H   0  0  0  0  0  0  0  0  0  0  0  0
    4.0556    0.5524    5.7506 H   0  0  0  0  0  0  0  0  0  0  0  0
    3.4262   -0.9098    7.4460 H   0  0  0  0  0  0  0  0  0  0  0  0
    0.8111   -1.5388    4.9463 H   0  0  0  0  0  0  0  0  0  0  0  0
   -1.3468   -2.5092    5.7240 H   0  0  0  0  0  0  0  0  0  0  0  0
   -0.6741   -2.5541    7.3639 H   0  0  0  0  0  0  0  0  0  0  0  0
    0.0809   -3.4818    6.0807 H   0  0  0  0  0  0  0  0  0  0  0  0
   -1.0337   -0.0198    5.2988 H   0  0  0  0  0  0  0  0  0  0  0  0
   -0.1630    0.3745    7.8994 H   0  0  0  0  0  0  0  0  0  0  0  0
    1.0739    2.4893    7.5691 H   0  0  0  0  0  0  0  0  0  0  0  0
    2.1912    3.3246    5.4237 H   0  0  0  0  0  0  0  0  0  0  0  0
    3.5041    2.4639    6.1877 H   0  0  0  0  0  0  0  0  0  0  0  0
  1  2  1  0
  1 29  1  0
  1 30  1  0
  1 31  1  0
  2  3  1  0
  3  4  2  0
  3  5  1  0
  5 24  1  0
  5  6  1  0
  5 32  1  1
  6 13  1  0
  6  7  1  0
  6 33  1  6
  7  8  2  0
  7 34  1  0
  8  9  1  0
  8 35  1  0
  9 27  1  0
  9 10  1  6
  9 14  1  0
 10 11  2  0
 10 12  1  0
 12 13  1  0
 13 36  1  0
 13 37  1  0
 14 15  1  0
 14 17  1  0
 14 38  1  1
 15 16  1  0
 15 39  1  0
 15 40  1  0
 16 41  1  0
 17 27  1  0
 17 18  1  0
 17 42  1  1
 18 28  1  0
 18 19  1  0
 18 43  1  1
 19 20  1  0
 20 21  1  0
 20 22  1  0
 20 44  1  6
 21 45  1  0
 21 46  1  0
 21 47  1  0
 22 23  1  0
 22 24  1  0
 22 48  1  6
 23 49  1  0
 24 27  1  6
 24 25  1  0
 25 26  1  0
 25 28  1  0
 25 50  1  1
 27 26  1  6
 26 51  1  0
 26 52  1  0
M  END
>  <i_m_ct_stereo_status>  (118) 
1

>  <s_m_source_file>  (118) 
/var/tmp/pbs.5076255.sched01/tmpxs4nfypl/40fgi3imsd.sdf

>  <i_m_source_file_index>  (118) 
17

>  <i_lp_mmshare_version>  (118) 
48012

>  <i_f3d_flags>  (118) 
0

>  <s_epik_input>  (118) 
Tz1DMU9bQ0gyXVtDQEhdKFtDSF09W0NIXTIpW0NAQEhdKEMoPU8pT1tDSDNdKVtDQEBdMyhbQ0BdNDVbQ0BAXTEyNilbQ0BIXShbQ0gyXTUpT1tDQEhdKFtDQEhdNFtDQEBIXTZbQ0gyXVtPSF0pT1tDQEBIXShbQ0gzXSlbQ0BIXTNbT0hd

>  <s_epik_cmdline>  (118) 
J2VwaWtfcHl0aG9uJywgJy1waHQnLCAnMi4wJywgJy1waCcsICc3LjAnLCAnLXRuJywgJzgnLCAnLW1hJywgJzIwMCcsICctaW1hZScsICc8aW5maWxlLm1hZT4nLCAnLW9tYWUnLCAnPG91dGZpbGUubWFlPic=

>  <r_lp_tautomer_probability>  (118) 
1

>  <r_epik_Ionization_Penalty>  (118) 
4.82841e-07

>  <r_epik_Ionization_Penalty_Charging>  (118) 
0

>  <r_epik_Ionization_Penalty_Neutral>  (118) 
4.82841e-07

>  <r_epik_State_Penalty>  (118) 
-0

>  <r_epik_Charging_Adjusted_Penalty>  (118) 
0

>  <i_epik_Tot_Q>  (118) 
0

>  <i_epik_Tot_abs_Q>  (118) 
0

>  <s_epik_Chemistry_Notes>  (118) 
This compound has an ester and may undergo hydrolysis at high or low pH. This compound contains an acetal/aminal-like group ( X-CH(R)-Y where X, Y are N, S, or O) that may be acid/base labile, releasing an aldehyde.

>  <s_lp_Force_Field>  (118) 
OPLS3e

>  <r_lp_Energy>  (118) 
108.439

>  <b_lp_Chiralities_Consistent>  (118) 
1

>  <s_lp_Variant>  (118) 
46:0-1

>  <s_i_glide_gridfile>  (118) 
pfpi4k_grid

>  <i_i_glide_lignum>  (118) 
17

>  <i_i_glide_rotatable_bonds>  (118) 
5

>  <r_i_docking_score>  (118) 
-2.23284

>  <r_i_glide_ligand_efficiency>  (118) 
-0.0797442

>  <r_i_glide_ligand_efficiency_sa>  (118) 
-0.24215

>  <r_i_glide_ligand_efficiency_ln>  (118) 
-0.515404

>  <r_i_glide_gscore>  (118) 
-2.23284

>  <r_i_glide_lipo>  (118) 
-0.266756

>  <r_i_glide_hbond>  (118) 
0

>  <r_i_glide_metal>  (118) 
-0

>  <r_i_glide_rewards>  (118) 
-0.780454

>  <r_i_glide_evdw>  (118) 
-22.3318

>  <r_i_glide_ecoul>  (118) 
-1.95109

>  <r_i_glide_erotb>  (118) 
0.2536

>  <r_i_glide_esite>  (118) 
-0.0299713

>  <r_i_glide_emodel>  (118) 
-27.5229

>  <r_i_glide_energy>  (118) 
-24.2829

>  <r_i_glide_einternal>  (118) 
0.90292

>  <r_i_glide_intrahb_reward>  (118) 
-0

>  <i_i_glide_confnum>  (118) 
2

>  <i_i_glide_posenum>  (118) 
16

>  <r_i_glide_eff_state_penalty>  (118) 
0

>  <ligand_id>  (118) 
46

>  <original_smiles>  (118) 
COC(=O)C1C2C=CC3(C(=O)OC2)C(CO)C2C4OC(C)C(O)C15C(CC235)O4

>  <smiles>  (118) 
[H]OC([H])([H])C1([H])C23C(=O)OC([H])([H])C([H])(C([H])=C2[H])C([H])(C(=O)OC([H])([H])[H])C24C5([H])OC([H])(OC([H])(C([H])([H])[H])C2([H])O[H])C1([H])C34C5([H])[H]

$$$$
46:0:1
     RDKit          3D

 52 57  0  0  1  0  0  0  0  0999 V2000
    2.8854    0.4767   10.3821 C   0  0  0  0  0  0  0  0  0  0  0  0
    1.9123    0.7316    9.3842 O   0  0  0  0  0  0  0  0  0  0  0  0
    1.9605    0.0712    8.2196 C   0  0  0  0  0  0  0  0  0  0  0  0
    2.7620   -0.8166    7.9406 O   0  0  0  0  0  0  0  0  0  0  0  0
    0.8222    0.4938    7.2707 C   0  0  2  0  0  0  0  0  0  0  0  0
    0.4678   -0.5759    6.1538 C   0  0  1  0  0  0  0  0  0  0  0  0
   -0.8948   -0.4558    5.4507 C   0  0  0  0  0  0  0  0  0  0  0  0
   -1.2143    0.5319    4.5836 C   0  0  0  0  0  0  0  0  0  0  0  0
   -0.2587    1.6892    4.4215 C   0  0  1  0  0  0  0  0  0  0  0  0
    0.9854    1.1613    3.6863 C   0  0  0  0  0  0  0  0  0  0  0  0
    1.2636    1.3549    2.5079 O   0  0  0  0  0  0  0  0  0  0  0  0
    1.8287    0.4855    4.4757 O   0  0  0  0  0  0  0  0  0  0  0  0
    1.5415   -0.7529    5.0856 C   0  0  0  0  0  0  0  0  0  0  0  0
   -0.6551    3.0851    3.8463 C   0  0  1  0  0  0  0  0  0  0  0  0
   -1.8738    3.2555    2.9396 C   0  0  0  0  0  0  0  0  0  0  0  0
   -3.0975    2.9510    3.5726 O   0  0  0  0  0  0  0  0  0  0  0  0
   -0.5698    3.7082    5.2522 C   0  0  2  0  0  0  0  0  0  0  0  0
    0.2220    4.7373    6.0353 C   0  0  2  0  0  0  0  0  0  0  0  0
    1.5478    4.8501    5.6527 O   0  0  0  0  0  0  0  0  0  0  0  0
    2.3739    3.7026    5.5187 C   0  0  1  0  0  0  0  0  0  0  0  0
    3.8043    4.2443    5.3460 C   0  0  0  0  0  0  0  0  0  0  0  0
    2.2345    2.5945    6.6076 C   0  0  1  0  0  0  0  0  0  0  0  0
    2.8400    3.0565    7.8010 O   0  0  0  0  0  0  0  0  0  0  0  0
    0.8063    2.0341    6.8670 C   0  0  2  0  0  0  0  0  0  0  0  0
   -0.0930    2.9432    7.7258 C   0  0  2  0  0  0  0  0  0  0  0  0
   -1.2817    2.2548    7.0112 C   0  0  0  0  0  0  0  0  0  0  0  0
   -0.2878    2.3501    5.8251 C   0  0  2  0  0  0  0  0  0  0  0  0
    0.0441    4.3590    7.3873 O   0  0  0  0  0  0  0  0  0  0  0  0
    2.6975    1.1162   11.2451 H   0  0  0  0  0  0  0  0  0  0  0  0
    3.8919    0.6883   10.0197 H   0  0  0  0  0  0  0  0  0  0  0  0
    2.8397   -0.5604   10.7137 H   0  0  0  0  0  0  0  0  0  0  0  0
    0.0244    0.3363    7.9881 H   0  0  0  0  0  0  0  0  0  0  0  0
    0.4047   -1.5395    6.6580 H   0  0  0  0  0  0  0  0  0  0  0  0
   -1.5934   -1.2663    5.5980 H   0  0  0  0  0  0  0  0  0  0  0  0
   -2.1576    0.5461    4.0668 H   0  0  0  0  0  0  0  0  0  0  0  0
    2.4615   -1.1348    5.5284 H   0  0  0  0  0  0  0  0  0  0  0  0
    1.2422   -1.4828    4.3346 H   0  0  0  0  0  0  0  0  0  0  0  0
    0.2070    3.5122    3.3401 H   0  0  0  0  0  0  0  0  0  0  0  0
   -1.9121    4.2742    2.5553 H   0  0  0  0  0  0  0  0  0  0  0  0
   -1.7706    2.5883    2.0907 H   0  0  0  0  0  0  0  0  0  0  0  0
   -3.2188    2.0193    3.5369 H   0  0  0  0  0  0  0  0  0  0  0  0
   -1.6045    3.9807    5.3950 H   0  0  0  0  0  0  0  0  0  0  0  0
   -0.2087    5.7322    5.9314 H   0  0  0  0  0  0  0  0  0  0  0  0
    2.1407    3.2775    4.5508 H   0  0  0  0  0  0  0  0  0  0  0  0
    4.5296    3.4384    5.2148 H   0  0  0  0  0  0  0  0  0  0  0  0
    4.1109    4.8555    6.1981 H   0  0  0  0  0  0  0  0  0  0  0  0
    3.8646    4.8835    4.4598 H   0  0  0  0  0  0  0  0  0  0  0  0
    2.9001    1.7953    6.2835 H   0  0  0  0  0  0  0  0  0  0  0  0
    3.6933    3.3911    7.5955 H   0  0  0  0  0  0  0  0  0  0  0  0
   -0.0422    2.7176    8.7882 H   0  0  0  0  0  0  0  0  0  0  0  0
   -1.5732    1.2681    7.3643 H   0  0  0  0  0  0  0  0  0  0  0  0
   -2.1659    2.8873    6.9971 H   0  0  0  0  0  0  0  0  0  0  0  0
  1  2  1  0
  1 29  1  0
  1 30  1  0
  1 31  1  0
  2  3  1  0
  3  4  2  0
  3  5  1  0
  5 24  1  0
  5  6  1  0
  5 32  1  1
  6 13  1  0
  6  7  1  0
  6 33  1  1
  7  8  2  0
  7 34  1  0
  8  9  1  0
  8 35  1  0
  9 27  1  0
  9 10  1  6
  9 14  1  0
 10 11  2  0
 10 12  1  0
 12 13  1  0
 13 36  1  0
 13 37  1  0
 14 15  1  0
 14 17  1  0
 14 38  1  6
 15 16  1  0
 15 39  1  0
 15 40  1  0
 16 41  1  0
 17 27  1  0
 17 18  1  0
 17 42  1  1
 18 28  1  0
 18 19  1  0
 18 43  1  1
 19 20  1  0
 20 21  1  0
 20 22  1  0
 20 44  1  6
 21 45  1  0
 21 46  1  0
 21 47  1  0
 22 23  1  0
 22 24  1  0
 22 48  1  6
 23 49  1  0
 24 27  1  6
 24 25  1  0
 25 26  1  0
 25 28  1  0
 25 50  1  1
 27 26  1  1
 26 51  1  0
 26 52  1  0
M  END
>  <i_m_ct_stereo_status>  (119) 
1

>  <s_m_source_file>  (119) 
/var/tmp/pbs.5076255.sched01/tmpxs4nfypl/40fgi3imsd.sdf

>  <i_m_source_file_index>  (119) 
17

>  <i_lp_mmshare_version>  (119) 
48012

>  <i_f3d_flags>  (119) 
0

>  <s_epik_input>  (119) 
Tz1DMU9bQ0gyXVtDQEhdKFtDSF09W0NIXTIpW0NAQEhdKEMoPU8pT1tDSDNdKVtDQEBdMyhbQ0BdNDVbQ0BAXTEyNilbQ0BIXShbQ0gyXTUpT1tDQEhdKFtDQEhdNFtDQEBIXTZbQ0gyXVtPSF0pT1tDQEBIXShbQ0gzXSlbQ0BIXTNbT0hd

>  <s_epik_cmdline>  (119) 
J2VwaWtfcHl0aG9uJywgJy1waHQnLCAnMi4wJywgJy1waCcsICc3LjAnLCAnLXRuJywgJzgnLCAnLW1hJywgJzIwMCcsICctaW1hZScsICc8aW5maWxlLm1hZT4nLCAnLW9tYWUnLCAnPG91dGZpbGUubWFlPic=

>  <r_lp_tautomer_probability>  (119) 
1

>  <r_epik_Ionization_Penalty>  (119) 
4.82841e-07

>  <r_epik_Ionization_Penalty_Charging>  (119) 
0

>  <r_epik_Ionization_Penalty_Neutral>  (119) 
4.82841e-07

>  <r_epik_State_Penalty>  (119) 
-0

>  <r_epik_Charging_Adjusted_Penalty>  (119) 
0

>  <i_epik_Tot_Q>  (119) 
0

>  <i_epik_Tot_abs_Q>  (119) 
0

>  <s_epik_Chemistry_Notes>  (119) 
This compound has an ester and may undergo hydrolysis at high or low pH. This compound contains an acetal/aminal-like group ( X-CH(R)-Y where X, Y are N, S, or O) that may be acid/base labile, releasing an aldehyde.

>  <s_lp_Force_Field>  (119) 
OPLS3e

>  <r_lp_Energy>  (119) 
108.439

>  <b_lp_Chiralities_Consistent>  (119) 
1

>  <s_lp_Variant>  (119) 
46:0-1

>  <s_i_glide_gridfile>  (119) 
pfpi4k_grid

>  <i_i_glide_lignum>  (119) 
17

>  <i_i_glide_rotatable_bonds>  (119) 
5

>  <r_i_docking_score>  (119) 
-2.04349

>  <r_i_glide_ligand_efficiency>  (119) 
-0.0729819

>  <r_i_glide_ligand_efficiency_sa>  (119) 
-0.221616

>  <r_i_glide_ligand_efficiency_ln>  (119) 
-0.471698

>  <r_i_glide_gscore>  (119) 
-2.04349

>  <r_i_glide_lipo>  (119) 
0

>  <r_i_glide_hbond>  (119) 
-0.267076

>  <r_i_glide_metal>  (119) 
-0

>  <r_i_glide_rewards>  (119) 
-0.733638

>  <r_i_glide_evdw>  (119) 
-20.4409

>  <r_i_glide_ecoul>  (119) 
-1.68225

>  <r_i_glide_erotb>  (119) 
0.2536

>  <r_i_glide_esite>  (119) 
-0.0219972

>  <r_i_glide_emodel>  (119) 
-23.2204

>  <r_i_glide_energy>  (119) 
-22.1231

>  <r_i_glide_einternal>  (119) 
4.21661

>  <r_i_glide_intrahb_reward>  (119) 
-0

>  <i_i_glide_confnum>  (119) 
4

>  <i_i_glide_posenum>  (119) 
4

>  <r_i_glide_eff_state_penalty>  (119) 
0

>  <ligand_id>  (119) 
46

>  <original_smiles>  (119) 
COC(=O)C1C2C=CC3(C(=O)OC2)C(CO)C2C4OC(C)C(O)C15C(CC235)O4

>  <smiles>  (119) 
[H]OC([H])([H])C1([H])C23C(=O)OC([H])([H])C([H])(C([H])=C2[H])C([H])(C(=O)OC([H])([H])[H])C24C5([H])OC([H])(OC([H])(C([H])([H])[H])C2([H])O[H])C1([H])C34C5([H])[H]

$$$$
46:0:2
     RDKit          3D

 52 57  0  0  1  0  0  0  0  0999 V2000
    4.3133    1.9047    8.6205 C   0  0  0  0  0  0  0  0  0  0  0  0
    3.0292    1.9126    8.0240 O   0  0  0  0  0  0  0  0  0  0  0  0
    2.7845    1.1314    6.9587 C   0  0  0  0  0  0  0  0  0  0  0  0
    3.5734    0.3227    6.4706 O   0  0  0  0  0  0  0  0  0  0  0  0
    1.3567    1.3225    6.4181 C   0  0  2  0  0  0  0  0  0  0  0  0
    0.7708    0.0760    5.6332 C   0  0  1  0  0  0  0  0  0  0  0  0
   -0.7546    0.0093    5.4319 C   0  0  0  0  0  0  0  0  0  0  0  0
   -1.4500    0.8236    4.6124 C   0  0  0  0  0  0  0  0  0  0  0  0
   -0.7422    1.9924    3.9717 C   0  0  1  0  0  0  0  0  0  0  0  0
    0.2533    1.4098    2.9472 C   0  0  0  0  0  0  0  0  0  0  0  0
    0.0827    1.4239    1.7418 O   0  0  0  0  0  0  0  0  0  0  0  0
    1.4048    0.9457    3.4478 O   0  0  0  0  0  0  0  0  0  0  0  0
    1.4421   -0.1901    4.2833 C   0  0  0  0  0  0  0  0  0  0  0  0
   -1.4153    3.2753    3.3767 C   0  0  1  0  0  0  0  0  0  0  0  0
   -2.8690    3.2351    2.9178 C   0  0  0  0  0  0  0  0  0  0  0  0
   -3.7090    2.9419    3.9939 O   0  0  0  0  0  0  0  0  0  0  0  0
   -0.9884    4.1010    4.6044 C   0  0  2  0  0  0  0  0  0  0  0  0
   -0.0644    5.2735    4.9384 C   0  0  2  0  0  0  0  0  0  0  0  0
    1.0387    5.4160    4.1121 O   0  0  0  0  0  0  0  0  0  0  0  0
    1.8817    4.3145    3.8294 C   0  0  1  0  0  0  0  0  0  0  0  0
    3.0887    4.9140    3.1087 C   0  0  0  0  0  0  0  0  0  0  0  0
    2.2410    3.3886    5.0332 C   0  0  1  0  0  0  0  0  0  0  0  0
    3.1471    4.0588    5.8918 O   0  0  0  0  0  0  0  0  0  0  0  0
    1.0477    2.7797    5.8367 C   0  0  2  0  0  0  0  0  0  0  0  0
    0.3988    3.7579    6.8432 C   0  0  2  0  0  0  0  0  0  0  0  0
   -0.8900    2.9112    6.6691 C   0  0  0  0  0  0  0  0  0  0  0  0
   -0.3669    2.8629    5.2035 C   0  0  2  0  0  0  0  0  0  0  0  0
    0.2743    5.1182    6.3112 O   0  0  0  0  0  0  0  0  0  0  0  0
    4.3150    2.5662    9.4854 H   0  0  0  0  0  0  0  0  0  0  0  0
    5.0631    2.2670    7.9174 H   0  0  0  0  0  0  0  0  0  0  0  0
    4.5993    0.9071    8.9565 H   0  0  0  0  0  0  0  0  0  0  0  0
    0.8518    1.2374    7.3767 H   0  0  0  0  0  0  0  0  0  0  0  0
    0.9794   -0.7996    6.2485 H   0  0  0  0  0  0  0  0  0  0  0  0
   -1.2740   -0.8035    5.9127 H   0  0  0  0  0  0  0  0  0  0  0  0
   -2.5050    0.6988    4.4596 H   0  0  0  0  0  0  0  0  0  0  0  0
    2.4829   -0.4544    4.4345 H   0  0  0  0  0  0  0  0  0  0  0  0
    0.9899   -1.0547    3.7895 H   0  0  0  0  0  0  0  0  0  0  0  0
   -0.8284    3.6671    2.5558 H   0  0  0  0  0  0  0  0  0  0  0  0
   -3.1744    4.1928    2.5000 H   0  0  0  0  0  0  0  0  0  0  0  0
   -3.0161    2.4771    2.1479 H   0  0  0  0  0  0  0  0  0  0  0  0
   -3.6827    2.0162    4.1271 H   0  0  0  0  0  0  0  0  0  0  0  0
   -1.9364    4.3524    5.0662 H   0  0  0  0  0  0  0  0  0  0  0  0
   -0.5775    6.2324    4.8701 H   0  0  0  0  0  0  0  0  0  0  0  0
    1.3822    3.7276    3.0684 H   0  0  0  0  0  0  0  0  0  0  0  0
    3.7938    4.1327    2.8341 H   0  0  0  0  0  0  0  0  0  0  0  0
    3.6066    5.6529    3.7214 H   0  0  0  0  0  0  0  0  0  0  0  0
    2.7761    5.4104    2.1885 H   0  0  0  0  0  0  0  0  0  0  0  0
    2.8360    2.5837    4.6090 H   0  0  0  0  0  0  0  0  0  0  0  0
    3.8218    4.4380    5.3542 H   0  0  0  0  0  0  0  0  0  0  0  0
    0.8208    3.7241    7.8474 H   0  0  0  0  0  0  0  0  0  0  0  0
   -0.9508    1.9758    7.2241 H   0  0  0  0  0  0  0  0  0  0  0  0
   -1.7994    3.4727    6.8853 H   0  0  0  0  0  0  0  0  0  0  0  0
  1  2  1  0
  1 29  1  0
  1 30  1  0
  1 31  1  0
  2  3  1  0
  3  4  2  0
  3  5  1  0
  5 24  1  0
  5  6  1  0
  5 32  1  1
  6 13  1  0
  6  7  1  0
  6 33  1  1
  7  8  2  0
  7 34  1  0
  8  9  1  0
  8 35  1  0
  9 27  1  0
  9 10  1  6
  9 14  1  0
 10 11  2  0
 10 12  1  0
 12 13  1  0
 13 36  1  0
 13 37  1  0
 14 15  1  0
 14 17  1  0
 14 38  1  6
 15 16  1  0
 15 39  1  0
 15 40  1  0
 16 41  1  0
 17 27  1  0
 17 18  1  0
 17 42  1  1
 18 28  1  0
 18 19  1  0
 18 43  1  1
 19 20  1  0
 20 21  1  0
 20 22  1  0
 20 44  1  6
 21 45  1  0
 21 46  1  0
 21 47  1  0
 22 23  1  0
 22 24  1  0
 22 48  1  6
 23 49  1  0
 24 27  1  6
 24 25  1  0
 25 26  1  0
 25 28  1  0
 25 50  1  1
 27 26  1  1
 26 51  1  0
 26 52  1  0
M  END
>  <i_m_ct_stereo_status>  (120) 
1

>  <s_m_source_file>  (120) 
/var/tmp/pbs.5076255.sched01/tmpxs4nfypl/40fgi3imsd.sdf

>  <i_m_source_file_index>  (120) 
17

>  <i_lp_mmshare_version>  (120) 
48012

>  <i_f3d_flags>  (120) 
0

>  <s_epik_input>  (120) 
Tz1DMU9bQ0gyXVtDQEhdKFtDSF09W0NIXTIpW0NAQEhdKEMoPU8pT1tDSDNdKVtDQEBdMyhbQ0BdNDVbQ0BAXTEyNilbQ0BIXShbQ0gyXTUpT1tDQEhdKFtDQEhdNFtDQEBIXTZbQ0gyXVtPSF0pT1tDQEBIXShbQ0gzXSlbQ0BIXTNbT0hd

>  <s_epik_cmdline>  (120) 
J2VwaWtfcHl0aG9uJywgJy1waHQnLCAnMi4wJywgJy1waCcsICc3LjAnLCAnLXRuJywgJzgnLCAnLW1hJywgJzIwMCcsICctaW1hZScsICc8aW5maWxlLm1hZT4nLCAnLW9tYWUnLCAnPG91dGZpbGUubWFlPic=

>  <r_lp_tautomer_probability>  (120) 
1

>  <r_epik_Ionization_Penalty>  (120) 
4.82841e-07

>  <r_epik_Ionization_Penalty_Charging>  (120) 
0

>  <r_epik_Ionization_Penalty_Neutral>  (120) 
4.82841e-07

>  <r_epik_State_Penalty>  (120) 
-0

>  <r_epik_Charging_Adjusted_Penalty>  (120) 
0

>  <i_epik_Tot_Q>  (120) 
0

>  <i_epik_Tot_abs_Q>  (120) 
0

>  <s_epik_Chemistry_Notes>  (120) 
This compound has an ester and may undergo hydrolysis at high or low pH. This compound contains an acetal/aminal-like group ( X-CH(R)-Y where X, Y are N, S, or O) that may be acid/base labile, releasing an aldehyde.

>  <s_lp_Force_Field>  (120) 
OPLS3e

>  <r_lp_Energy>  (120) 
108.439

>  <b_lp_Chiralities_Consistent>  (120) 
1

>  <s_lp_Variant>  (120) 
46:0-1

>  <s_i_glide_gridfile>  (120) 
pfpi4k_grid

>  <i_i_glide_lignum>  (120) 
17

>  <i_i_glide_rotatable_bonds>  (120) 
5

>  <r_i_docking_score>  (120) 
-1.78847

>  <r_i_glide_ligand_efficiency>  (120) 
-0.0638739

>  <r_i_glide_ligand_efficiency_sa>  (120) 
-0.193959

>  <r_i_glide_ligand_efficiency_ln>  (120) 
-0.412831

>  <r_i_glide_gscore>  (120) 
-1.78847

>  <r_i_glide_lipo>  (120) 
-0.128459

>  <r_i_glide_hbond>  (120) 
-0.0828637

>  <r_i_glide_metal>  (120) 
-0

>  <r_i_glide_rewards>  (120) 
-0.733638

>  <r_i_glide_evdw>  (120) 
-20.1113

>  <r_i_glide_ecoul>  (120) 
0.0030866

>  <r_i_glide_erotb>  (120) 
0.2536

>  <r_i_glide_esite>  (120) 
-0.0920051

>  <r_i_glide_emodel>  (120) 
-20.9267

>  <r_i_glide_energy>  (120) 
-20.1083

>  <r_i_glide_einternal>  (120) 
4.07363

>  <r_i_glide_intrahb_reward>  (120) 
-0

>  <i_i_glide_confnum>  (120) 
4

>  <i_i_glide_posenum>  (120) 
18

>  <r_i_glide_eff_state_penalty>  (120) 
0

>  <ligand_id>  (120) 
46

>  <original_smiles>  (120) 
COC(=O)C1C2C=CC3(C(=O)OC2)C(CO)C2C4OC(C)C(O)C15C(CC235)O4

>  <smiles>  (120) 
[H]OC([H])([H])C1([H])C23C(=O)OC([H])([H])C([H])(C([H])=C2[H])C([H])(C(=O)OC([H])([H])[H])C24C5([H])OC([H])(OC([H])(C([H])([H])[H])C2([H])O[H])C1([H])C34C5([H])[H]

$$$$
47:0:0
     RDKit          3D

 73 77  0  0  1  0  0  0  0  0999 V2000
    5.1679   -0.5203    0.5443 C   0  0  0  0  0  0  0  0  0  0  0  0
    4.6206   -1.8407   -0.0779 C   0  0  2  0  0  0  0  0  0  0  0  0
    3.8994   -1.4766   -1.3997 C   0  0  0  0  0  0  0  0  0  0  0  0
    3.4624   -2.6631   -2.3096 C   0  0  0  0  0  0  0  0  0  0  0  0
    4.0678   -2.6430   -3.7340 C   0  0  0  0  0  0  0  0  0  0  0  0
    4.3411   -3.7457   -4.2552 O   0  0  0  0  0  0  0  0  0  0  0  0
    4.2251   -1.5383   -4.3042 O   0  0  0  0  0  0  0  0  0  0  0  0
    3.7355   -2.7043    0.8898 C   0  0  2  0  0  0  0  0  0  0  0  0
    2.5795   -1.9374    1.5739 C   0  0  0  0  0  0  0  0  0  0  0  0
    2.4382   -2.5235    2.9766 C   0  0  0  0  0  0  0  0  0  0  0  0
    3.2130   -3.8540    2.9852 C   0  0  1  0  0  0  0  0  0  0  0  0
    2.3098   -5.0537    2.5537 C   0  0  2  0  0  0  0  0  0  0  0  0
    1.2180   -5.3455    3.6075 C   0  0  0  0  0  0  0  0  0  0  0  0
    1.0757   -4.7313    4.6363 O   0  0  0  0  0  0  0  0  0  0  0  0
    0.2841   -6.4902    3.2177 C   0  0  0  0  0  0  0  0  0  0  0  0
    1.0620   -7.7858    2.9585 C   0  0  1  0  0  0  0  0  0  0  0  0
    0.0464   -8.6186    2.4446 O   0  0  0  0  0  0  0  0  0  0  0  0
    2.1535   -7.5592    1.8634 C   0  0  2  0  0  0  0  0  0  0  0  0
    2.9158   -8.8881    1.5604 C   0  0  0  0  0  0  0  0  0  0  0  0
    2.6637  -10.0557    2.5249 C   0  0  0  0  0  0  0  0  0  0  0  0
    2.5678   -9.6494    4.0115 C   0  0  2  0  0  0  0  0  0  0  0  0
    4.0022   -9.3928    4.5680 C   0  0  0  0  0  0  0  0  0  0  0  0
    1.8354  -10.7530    4.7985 C   0  0  1  0  0  0  0  0  0  0  0  0
    2.6959  -11.7955    5.1570 O   0  0  0  0  0  0  0  0  0  0  0  0
    1.1504  -10.0527    5.9739 C   0  0  0  0  0  0  0  0  0  0  0  0
    0.6728   -8.7419    5.3666 C   0  0  0  0  0  0  0  0  0  0  0  0
    1.6844   -8.3927    4.2506 C   0  0  2  0  0  0  0  0  0  0  0  0
    3.0940   -6.3483    2.2130 C   0  0  1  0  0  0  0  0  0  0  0  0
    4.0817   -5.9846    1.0823 C   0  0  0  0  0  0  0  0  0  0  0  0
    5.0602   -4.8921    1.5440 C   0  0  0  0  0  0  0  0  0  0  0  0
    4.3946   -3.5698    2.0163 C   0  0  1  0  0  0  0  0  0  0  0  0
    5.4774   -2.7822    2.7815 C   0  0  0  0  0  0  0  0  0  0  0  0
    4.3647    0.1959    0.7348 H   0  0  0  0  0  0  0  0  0  0  0  0
    5.8501   -0.0089   -0.1473 H   0  0  0  0  0  0  0  0  0  0  0  0
    5.6897   -0.6811    1.5098 H   0  0  0  0  0  0  0  0  0  0  0  0
    5.4813   -2.4500   -0.3557 H   0  0  0  0  0  0  0  0  0  0  0  0
    3.0185   -0.8820   -1.1807 H   0  0  0  0  0  0  0  0  0  0  0  0
    4.5424   -0.8002   -1.9500 H   0  0  0  0  0  0  0  0  0  0  0  0
    3.7105   -3.6315   -1.8758 H   0  0  0  0  0  0  0  0  0  0  0  0
    2.3769   -2.6564   -2.4280 H   0  0  0  0  0  0  0  0  0  0  0  0
    3.2265   -3.4373    0.2706 H   0  0  0  0  0  0  0  0  0  0  0  0
    2.7560   -0.8591    1.6611 H   0  0  0  0  0  0  0  0  0  0  0  0
    1.6622   -2.0654    0.9954 H   0  0  0  0  0  0  0  0  0  0  0  0
    2.9064   -1.8404    3.6771 H   0  0  0  0  0  0  0  0  0  0  0  0
    1.3939   -2.6019    3.2708 H   0  0  0  0  0  0  0  0  0  0  0  0
    3.6052   -4.0613    3.9864 H   0  0  0  0  0  0  0  0  0  0  0  0
    1.7899   -4.7377    1.6536 H   0  0  0  0  0  0  0  0  0  0  0  0
   -0.4800   -6.6219    3.9885 H   0  0  0  0  0  0  0  0  0  0  0  0
   -0.2221   -6.2058    2.3022 H   0  0  0  0  0  0  0  0  0  0  0  0
    0.4684   -9.3953    2.0470 H   0  0  0  0  0  0  0  0  0  0  0  0
    1.6349   -7.2764    0.9483 H   0  0  0  0  0  0  0  0  0  0  0  0
    2.6259   -9.2451    0.5673 H   0  0  0  0  0  0  0  0  0  0  0  0
    3.9913   -8.7303    1.5097 H   0  0  0  0  0  0  0  0  0  0  0  0
    1.7391  -10.5524    2.2300 H   0  0  0  0  0  0  0  0  0  0  0  0
    3.4361  -10.8096    2.3944 H   0  0  0  0  0  0  0  0  0  0  0  0
    3.9898   -9.1403    5.6301 H   0  0  0  0  0  0  0  0  0  0  0  0
    4.4949   -8.5766    4.0453 H   0  0  0  0  0  0  0  0  0  0  0  0
    4.6445  -10.2648    4.4546 H   0  0  0  0  0  0  0  0  0  0  0  0
    1.0356  -11.2034    4.1956 H   0  0  0  0  0  0  0  0  0  0  0  0
    2.2875  -12.2508    5.9030 H   0  0  0  0  0  0  0  0  0  0  0  0
    0.3223  -10.6368    6.3761 H   0  0  0  0  0  0  0  0  0  0  0  0
    1.8520   -9.8630    6.7909 H   0  0  0  0  0  0  0  0  0  0  0  0
   -0.3297   -8.8906    4.9625 H   0  0  0  0  0  0  0  0  0  0  0  0
    0.6076   -7.9476    6.1115 H   0  0  0  0  0  0  0  0  0  0  0  0
    2.3386   -7.6396    4.6813 H   0  0  0  0  0  0  0  0  0  0  0  0
    3.6823   -6.6167    3.0876 H   0  0  0  0  0  0  0  0  0  0  0  0
    4.6720   -6.8511    0.7812 H   0  0  0  0  0  0  0  0  0  0  0  0
    3.5457   -5.6617    0.1898 H   0  0  0  0  0  0  0  0  0  0  0  0
    5.6183   -5.3108    2.3832 H   0  0  0  0  0  0  0  0  0  0  0  0
    5.7964   -4.6919    0.7671 H   0  0  0  0  0  0  0  0  0  0  0  0
    5.8096   -3.3274    3.6793 H   0  0  0  0  0  0  0  0  0  0  0  0
    5.1338   -1.7902    3.0613 H   0  0  0  0  0  0  0  0  0  0  0  0
    6.3512   -2.6427    2.1614 H   0  0  0  0  0  0  0  0  0  0  0  0
  1  2  1  0
  1 33  1  0
  1 34  1  0
  1 35  1  0
  2  3  1  0
  2  8  1  0
  2 36  1  6
  3  4  1  0
  3 37  1  0
  3 38  1  0
  4  5  1  0
  4 39  1  0
  4 40  1  0
  5  6  2  0
  5  7  1  0
  8 31  1  0
  8  9  1  0
  8 41  1  6
  9 10  1  0
  9 42  1  0
  9 43  1  0
 10 11  1  0
 10 44  1  0
 10 45  1  0
 11 31  1  0
 11 12  1  0
 11 46  1  1
 12 28  1  0
 12 13  1  0
 12 47  1  6
 13 14  2  0
 13 15  1  0
 15 16  1  0
 15 48  1  0
 15 49  1  0
 16 27  1  0
 16 17  1  6
 16 18  1  0
 17 50  1  0
 18 19  1  0
 18 28  1  0
 18 51  1  6
 19 20  1  0
 19 52  1  0
 19 53  1  0
 20 21  1  0
 20 54  1  0
 20 55  1  0
 21 27  1  0
 21 22  1  1
 21 23  1  0
 22 56  1  0
 22 57  1  0
 22 58  1  0
 23 24  1  0
 23 25  1  0
 23 59  1  6
 24 60  1  0
 25 26  1  0
 25 61  1  0
 25 62  1  0
 26 27  1  0
 26 63  1  0
 26 64  1  0
 27 65  1  1
 28 29  1  0
 28 66  1  1
 29 30  1  0
 29 67  1  0
 29 68  1  0
 30 31  1  0
 30 69  1  0
 30 70  1  0
 31 32  1  1
 32 71  1  0
 32 72  1  0
 32 73  1  0
M  CHG  1   7  -1
M  END
>  <i_m_ct_stereo_status>  (121) 
1

>  <s_m_source_file>  (121) 
/var/tmp/pbs.5076255.sched01/tmpxs4nfypl/40fgi3imsd.sdf

>  <i_m_source_file_index>  (121) 
18

>  <i_lp_mmshare_version>  (121) 
48012

>  <i_f3d_flags>  (121) 
0

>  <s_epik_input>  (121) 
Tz1DKFtPSF0pW0NIMl1bQ0gyXVtDQEBIXShbQ0gzXSlbQ0BIXShbQ0gyXVtDSDJdMSlbQ0BdKFtDSDNdKShbQ0gyXVtDSDJdMilbQ0BASF0xW0NASF0oQyg9TylbQ0gyXTMpW0NASF0yW0NASF0oW0NAXTM0W09IXSlbQ0gyXVtDSDJdW0NAQF01KFtDSDNdKVtDQEBIXTRbQ0gyXVtDSDJdW0NAQEhdNVtPSF0=

>  <s_epik_cmdline>  (121) 
J2VwaWtfcHl0aG9uJywgJy1waHQnLCAnMi4wJywgJy1waCcsICc3LjAnLCAnLXRuJywgJzgnLCAnLW1hJywgJzIwMCcsICctaW1hZScsICc8aW5maWxlLm1hZT4nLCAnLW9tYWUnLCAnPG91dGZpbGUubWFlPic=

>  <r_lp_tautomer_probability>  (121) 
1

>  <r_epik_Ionization_Penalty>  (121) 
0.00577174

>  <r_epik_Ionization_Penalty_Charging>  (121) 
0.00577008

>  <r_epik_Ionization_Penalty_Neutral>  (121) 
1.66166e-06

>  <r_epik_State_Penalty>  (121) 
0.00423599

>  <r_epik_Charging_Adjusted_Penalty>  (121) 
0.0100061

>  <i_epik_Tot_Q>  (121) 
-1

>  <i_epik_Tot_abs_Q>  (121) 
1

>  <s_lp_Force_Field>  (121) 
OPLS3e

>  <r_lp_Energy>  (121) 
50.8265

>  <b_lp_Chiralities_Consistent>  (121) 
1

>  <s_lp_Variant>  (121) 
47:0-1

>  <s_i_glide_gridfile>  (121) 
pfpi4k_grid

>  <i_i_glide_lignum>  (121) 
18

>  <i_i_glide_rotatable_bonds>  (121) 
6

>  <r_i_docking_score>  (121) 
-2.96554

>  <r_i_glide_ligand_efficiency>  (121) 
-0.0926732

>  <r_i_glide_ligand_efficiency_sa>  (121) 
-0.294219

>  <r_i_glide_ligand_efficiency_ln>  (121) 
-0.664066

>  <r_i_glide_gscore>  (121) 
-2.96554

>  <r_i_glide_lipo>  (121) 
-0.324183

>  <r_i_glide_hbond>  (121) 
-0.390296

>  <r_i_glide_metal>  (121) 
-0

>  <r_i_glide_rewards>  (121) 
-0.576359

>  <r_i_glide_evdw>  (121) 
-25.7886

>  <r_i_glide_ecoul>  (121) 
-4.46226

>  <r_i_glide_erotb>  (121) 
0.302307

>  <r_i_glide_esite>  (121) 
-0.0182429

>  <r_i_glide_emodel>  (121) 
-31.6736

>  <r_i_glide_energy>  (121) 
-30.2508

>  <r_i_glide_einternal>  (121) 
10.8207

>  <r_i_glide_intrahb_reward>  (121) 
-0

>  <i_i_glide_confnum>  (121) 
2

>  <i_i_glide_posenum>  (121) 
1

>  <r_i_glide_eff_state_penalty>  (121) 
0

>  <ligand_id>  (121) 
47

>  <original_smiles>  (121) 
CC(CCC(=O)O)C1CCC2C3C(=O)CC4(O)C(CCC5(C)C(O)CCC54)C3CCC12C

>  <smiles>  (121) 
[H]OC1([H])C([H])([H])C([H])([H])C2([H])C3(O[H])C([H])([H])C(=O)C4([H])C([H])(C([H])([H])C([H])([H])C5(C([H])([H])[H])C4([H])C([H])([H])C([H])([H])C5([H])C([H])(C([H])([H])[H])C([H])([H])C([H])([H])C(=O)[O-])C3([H])C([H])([H])C([H])([H])C12C([H])([H])[H]

$$$$
47:0:1
     RDKit          3D

 73 77  0  0  1  0  0  0  0  0999 V2000
    5.2695   -0.6944    0.0214 C   0  0  0  0  0  0  0  0  0  0  0  0
    4.6116   -2.0110   -0.5162 C   0  0  2  0  0  0  0  0  0  0  0  0
    3.7964   -1.6675   -1.7954 C   0  0  0  0  0  0  0  0  0  0  0  0
    3.5039   -2.8186   -2.7833 C   0  0  0  0  0  0  0  0  0  0  0  0
    4.7480   -3.4347   -3.4512 C   0  0  0  0  0  0  0  0  0  0  0  0
    5.8712   -3.0519   -3.0338 O   0  0  0  0  0  0  0  0  0  0  0  0
    4.5535   -4.2532   -4.3730 O   0  0  0  0  0  0  0  0  0  0  0  0
    3.7727   -2.8059    0.5443 C   0  0  2  0  0  0  0  0  0  0  0  0
    2.7590   -1.9409    1.3383 C   0  0  0  0  0  0  0  0  0  0  0  0
    2.7518   -2.4888    2.7648 C   0  0  0  0  0  0  0  0  0  0  0  0
    3.4380   -3.8687    2.7156 C   0  0  1  0  0  0  0  0  0  0  0  0
    2.4159   -5.0140    2.4215 C   0  0  2  0  0  0  0  0  0  0  0  0
    1.4293   -5.2151    3.5872 C   0  0  0  0  0  0  0  0  0  0  0  0
    1.4484   -4.5681    4.6250 O   0  0  0  0  0  0  0  0  0  0  0  0
    0.3951   -6.3023    3.3390 C   0  0  0  0  0  0  0  0  0  0  0  0
    1.0576   -7.6515    3.0279 C   0  0  1  0  0  0  0  0  0  0  0  0
   -0.0543   -8.4334    2.6248 O   0  0  0  0  0  0  0  0  0  0  0  0
    2.0351   -7.5196    1.8189 C   0  0  2  0  0  0  0  0  0  0  0  0
    2.6730   -8.9014    1.4739 C   0  0  0  0  0  0  0  0  0  0  0  0
    2.4570  -10.0325    2.4943 C   0  0  0  0  0  0  0  0  0  0  0  0
    2.5556   -9.5916    3.9724 C   0  0  2  0  0  0  0  0  0  0  0  0
    4.0539   -9.4131    4.3553 C   0  0  0  0  0  0  0  0  0  0  0  0
    1.8520  -10.6272    4.8798 C   0  0  1  0  0  0  0  0  0  0  0  0
    2.6794  -11.7065    5.2469 O   0  0  0  0  0  0  0  0  0  0  0  0
    1.3403   -9.8499    6.0886 C   0  0  0  0  0  0  0  0  0  0  0  0
    0.8810   -8.5259    5.4951 C   0  0  0  0  0  0  0  0  0  0  0  0
    1.7783   -8.2740    4.2656 C   0  0  2  0  0  0  0  0  0  0  0  0
    3.0785   -6.3649    2.0290 C   0  0  1  0  0  0  0  0  0  0  0  0
    3.9541   -6.0894    0.7873 C   0  0  0  0  0  0  0  0  0  0  0  0
    5.0417   -5.0534    1.1061 C   0  0  0  0  0  0  0  0  0  0  0  0
    4.5154   -3.6810    1.6084 C   0  0  1  0  0  0  0  0  0  0  0  0
    5.7259   -2.9411    2.2155 C   0  0  0  0  0  0  0  0  0  0  0  0
    4.5098    0.0694    0.2682 H   0  0  0  0  0  0  0  0  0  0  0  0
    5.8912   -0.2590   -0.7856 H   0  0  0  0  0  0  0  0  0  0  0  0
    5.8866   -0.8728    0.9255 H   0  0  0  0  0  0  0  0  0  0  0  0
    5.4435   -2.6690   -0.7955 H   0  0  0  0  0  0  0  0  0  0  0  0
    2.8523   -1.2215   -1.5219 H   0  0  0  0  0  0  0  0  0  0  0  0
    4.2991   -0.8939   -2.3586 H   0  0  0  0  0  0  0  0  0  0  0  0
    2.9161   -3.6171   -2.3279 H   0  0  0  0  0  0  0  0  0  0  0  0
    2.8881   -2.4444   -3.6031 H   0  0  0  0  0  0  0  0  0  0  0  0
    3.1710   -3.5063   -0.0257 H   0  0  0  0  0  0  0  0  0  0  0  0
    3.0365   -0.8779    1.3587 H   0  0  0  0  0  0  0  0  0  0  0  0
    1.7615   -2.0193    0.8910 H   0  0  0  0  0  0  0  0  0  0  0  0
    3.3400   -1.8201    3.3845 H   0  0  0  0  0  0  0  0  0  0  0  0
    1.7444   -2.4946    3.1700 H   0  0  0  0  0  0  0  0  0  0  0  0
    3.9310   -4.0793    3.6706 H   0  0  0  0  0  0  0  0  0  0  0  0
    1.8188   -4.6813    1.5728 H   0  0  0  0  0  0  0  0  0  0  0  0
   -0.2894   -6.3652    4.1886 H   0  0  0  0  0  0  0  0  0  0  0  0
   -0.1854   -5.9919    2.4738 H   0  0  0  0  0  0  0  0  0  0  0  0
    0.2717   -9.2796    2.3367 H   0  0  0  0  0  0  0  0  0  0  0  0
    1.4354   -7.2240    0.9567 H   0  0  0  0  0  0  0  0  0  0  0  0
    2.2453   -9.2603    0.5340 H   0  0  0  0  0  0  0  0  0  0  0  0
    3.7406   -8.8159    1.2897 H   0  0  0  0  0  0  0  0  0  0  0  0
    1.4771  -10.4706    2.3148 H   0  0  0  0  0  0  0  0  0  0  0  0
    3.1601  -10.8396    2.2957 H   0  0  0  0  0  0  0  0  0  0  0  0
    4.1791   -9.1359    5.4046 H   0  0  0  0  0  0  0  0  0  0  0  0
    4.5342   -8.6406    3.7568 H   0  0  0  0  0  0  0  0  0  0  0  0
    4.6259  -10.3279    4.1960 H   0  0  0  0  0  0  0  0  0  0  0  0
    0.9729  -11.0447    4.3752 H   0  0  0  0  0  0  0  0  0  0  0  0
    2.2441  -12.1769    5.9507 H   0  0  0  0  0  0  0  0  0  0  0  0
    0.5217  -10.3648    6.5899 H   0  0  0  0  0  0  0  0  0  0  0  0
    2.1364   -9.6930    6.8194 H   0  0  0  0  0  0  0  0  0  0  0  0
   -0.1654   -8.6161    5.2094 H   0  0  0  0  0  0  0  0  0  0  0  0
    0.9532   -7.7168    6.2205 H   0  0  0  0  0  0  0  0  0  0  0  0
    2.5204   -7.5523    4.5984 H   0  0  0  0  0  0  0  0  0  0  0  0
    3.7411   -6.6509    2.8432 H   0  0  0  0  0  0  0  0  0  0  0  0
    4.4496   -6.9979    0.4462 H   0  0  0  0  0  0  0  0  0  0  0  0
    3.3418   -5.7507   -0.0487 H   0  0  0  0  0  0  0  0  0  0  0  0
    5.6623   -5.4881    1.8905 H   0  0  0  0  0  0  0  0  0  0  0  0
    5.6987   -4.9233    0.2484 H   0  0  0  0  0  0  0  0  0  0  0  0
    6.1096   -3.4936    3.0788 H   0  0  0  0  0  0  0  0  0  0  0  0
    5.4810   -1.9156    2.4922 H   0  0  0  0  0  0  0  0  0  0  0  0
    6.5433   -2.8681    1.5050 H   0  0  0  0  0  0  0  0  0  0  0  0
  1  2  1  0
  1 33  1  0
  1 34  1  0
  1 35  1  0
  2  3  1  0
  2  8  1  0
  2 36  1  6
  3  4  1  0
  3 37  1  0
  3 38  1  0
  4  5  1  0
  4 39  1  0
  4 40  1  0
  5  6  2  0
  5  7  1  0
  8 31  1  0
  8  9  1  0
  8 41  1  6
  9 10  1  0
  9 42  1  0
  9 43  1  0
 10 11  1  0
 10 44  1  0
 10 45  1  0
 11 31  1  0
 11 12  1  0
 11 46  1  1
 12 28  1  0
 12 13  1  0
 12 47  1  6
 13 14  2  0
 13 15  1  0
 15 16  1  0
 15 48  1  0
 15 49  1  0
 16 27  1  0
 16 17  1  6
 16 18  1  0
 17 50  1  0
 18 19  1  0
 18 28  1  0
 18 51  1  6
 19 20  1  0
 19 52  1  0
 19 53  1  0
 20 21  1  0
 20 54  1  0
 20 55  1  0
 21 27  1  0
 21 22  1  1
 21 23  1  0
 22 56  1  0
 22 57  1  0
 22 58  1  0
 23 24  1  0
 23 25  1  0
 23 59  1  6
 24 60  1  0
 25 26  1  0
 25 61  1  0
 25 62  1  0
 26 27  1  0
 26 63  1  0
 26 64  1  0
 27 65  1  1
 28 29  1  0
 28 66  1  1
 29 30  1  0
 29 67  1  0
 29 68  1  0
 30 31  1  0
 30 69  1  0
 30 70  1  0
 31 32  1  1
 32 71  1  0
 32 72  1  0
 32 73  1  0
M  CHG  1   7  -1
M  END
>  <i_m_ct_stereo_status>  (122) 
1

>  <s_m_source_file>  (122) 
/var/tmp/pbs.5076255.sched01/tmpxs4nfypl/40fgi3imsd.sdf

>  <i_m_source_file_index>  (122) 
18

>  <i_lp_mmshare_version>  (122) 
48012

>  <i_f3d_flags>  (122) 
0

>  <s_epik_input>  (122) 
Tz1DKFtPSF0pW0NIMl1bQ0gyXVtDQEBIXShbQ0gzXSlbQ0BIXShbQ0gyXVtDSDJdMSlbQ0BdKFtDSDNdKShbQ0gyXVtDSDJdMilbQ0BASF0xW0NASF0oQyg9TylbQ0gyXTMpW0NASF0yW0NASF0oW0NAXTM0W09IXSlbQ0gyXVtDSDJdW0NAQF01KFtDSDNdKVtDQEBIXTRbQ0gyXVtDSDJdW0NAQEhdNVtPSF0=

>  <s_epik_cmdline>  (122) 
J2VwaWtfcHl0aG9uJywgJy1waHQnLCAnMi4wJywgJy1waCcsICc3LjAnLCAnLXRuJywgJzgnLCAnLW1hJywgJzIwMCcsICctaW1hZScsICc8aW5maWxlLm1hZT4nLCAnLW9tYWUnLCAnPG91dGZpbGUubWFlPic=

>  <r_lp_tautomer_probability>  (122) 
1

>  <r_epik_Ionization_Penalty>  (122) 
0.00577174

>  <r_epik_Ionization_Penalty_Charging>  (122) 
0.00577008

>  <r_epik_Ionization_Penalty_Neutral>  (122) 
1.66166e-06

>  <r_epik_State_Penalty>  (122) 
0.00423599

>  <r_epik_Charging_Adjusted_Penalty>  (122) 
0.0100061

>  <i_epik_Tot_Q>  (122) 
-1

>  <i_epik_Tot_abs_Q>  (122) 
1

>  <s_lp_Force_Field>  (122) 
OPLS3e

>  <r_lp_Energy>  (122) 
50.8265

>  <b_lp_Chiralities_Consistent>  (122) 
1

>  <s_lp_Variant>  (122) 
47:0-1

>  <s_i_glide_gridfile>  (122) 
pfpi4k_grid

>  <i_i_glide_lignum>  (122) 
18

>  <i_i_glide_rotatable_bonds>  (122) 
6

>  <r_i_docking_score>  (122) 
-2.49994

>  <r_i_glide_ligand_efficiency>  (122) 
-0.0781231

>  <r_i_glide_ligand_efficiency_sa>  (122) 
-0.248025

>  <r_i_glide_ligand_efficiency_ln>  (122) 
-0.559805

>  <r_i_glide_gscore>  (122) 
-2.49994

>  <r_i_glide_lipo>  (122) 
-0.22985

>  <r_i_glide_hbond>  (122) 
-0.192726

>  <r_i_glide_metal>  (122) 
-0

>  <r_i_glide_rewards>  (122) 
-0.657376

>  <r_i_glide_evdw>  (122) 
-25.5436

>  <r_i_glide_ecoul>  (122) 
-2.87841

>  <r_i_glide_erotb>  (122) 
0.302307

>  <r_i_glide_esite>  (122) 
-0.0133542

>  <r_i_glide_emodel>  (122) 
-30.2488

>  <r_i_glide_energy>  (122) 
-28.422

>  <r_i_glide_einternal>  (122) 
7.0596

>  <r_i_glide_intrahb_reward>  (122) 
-0

>  <i_i_glide_confnum>  (122) 
5

>  <i_i_glide_posenum>  (122) 
38

>  <r_i_glide_eff_state_penalty>  (122) 
0

>  <ligand_id>  (122) 
47

>  <original_smiles>  (122) 
CC(CCC(=O)O)C1CCC2C3C(=O)CC4(O)C(CCC5(C)C(O)CCC54)C3CCC12C

>  <smiles>  (122) 
[H]OC1([H])C([H])([H])C([H])([H])C2([H])C3(O[H])C([H])([H])C(=O)C4([H])C([H])(C([H])([H])C([H])([H])C5(C([H])([H])[H])C4([H])C([H])([H])C([H])([H])C5([H])C([H])(C([H])([H])[H])C([H])([H])C([H])([H])C(=O)[O-])C3([H])C([H])([H])C([H])([H])C12C([H])([H])[H]

$$$$
47:0:2
     RDKit          3D

 73 77  0  0  1  0  0  0  0  0999 V2000
    3.8785   -0.2013    0.4613 C   0  0  0  0  0  0  0  0  0  0  0  0
    4.4776   -1.6014    0.2378 C   0  0  2  0  0  0  0  0  0  0  0  0
    4.1121   -2.1307   -1.1828 C   0  0  0  0  0  0  0  0  0  0  0  0
    4.4264   -1.1774   -2.3585 C   0  0  0  0  0  0  0  0  0  0  0  0
    4.2099   -1.8128   -3.7426 C   0  0  0  0  0  0  0  0  0  0  0  0
    4.1867   -1.0302   -4.7167 O   0  0  0  0  0  0  0  0  0  0  0  0
    4.1392   -3.0525   -3.8503 O   0  0  0  0  0  0  0  0  0  0  0  0
    4.0093   -2.5360    1.4015 C   0  0  2  0  0  0  0  0  0  0  0  0
    4.2731   -1.9139    2.7938 C   0  0  0  0  0  0  0  0  0  0  0  0
    4.6525   -3.0384    3.7517 C   0  0  0  0  0  0  0  0  0  0  0  0
    4.3142   -4.3450    3.0192 C   0  0  1  0  0  0  0  0  0  0  0  0
    2.8534   -4.8039    3.3189 C   0  0  2  0  0  0  0  0  0  0  0  0
    2.6575   -5.2389    4.7790 C   0  0  0  0  0  0  0  0  0  0  0  0
    3.5485   -5.2408    5.6129 O   0  0  0  0  0  0  0  0  0  0  0  0
    1.2464   -5.6728    5.1377 C   0  0  0  0  0  0  0  0  0  0  0  0
    0.7815   -6.8256    4.2340 C   0  0  1  0  0  0  0  0  0  0  0  0
   -0.5966   -6.9552    4.5420 O   0  0  0  0  0  0  0  0  0  0  0  0
    0.9063   -6.4396    2.7330 C   0  0  2  0  0  0  0  0  0  0  0  0
    0.3854   -7.5884    1.8064 C   0  0  0  0  0  0  0  0  0  0  0  0
    0.1283   -8.9419    2.4999 C   0  0  0  0  0  0  0  0  0  0  0  0
    1.1999   -9.3380    3.5353 C   0  0  2  0  0  0  0  0  0  0  0  0
    2.4760   -9.8466    2.8322 C   0  0  0  0  0  0  0  0  0  0  0  0
    0.6153  -10.4033    4.4731 C   0  0  1  0  0  0  0  0  0  0  0  0
    0.6919  -11.7297    4.0069 O   0  0  0  0  0  0  0  0  0  0  0  0
    1.2778  -10.2173    5.8216 C   0  0  0  0  0  0  0  0  0  0  0  0
    1.4077   -8.7016    5.9524 C   0  0  0  0  0  0  0  0  0  0  0  0
    1.5399   -8.1670    4.5062 C   0  0  2  0  0  0  0  0  0  0  0  0
    2.3463   -5.9266    2.3744 C   0  0  1  0  0  0  0  0  0  0  0  0
    2.4630   -5.3839    0.9357 C   0  0  0  0  0  0  0  0  0  0  0  0
    3.9238   -5.0529    0.6045 C   0  0  0  0  0  0  0  0  0  0  0  0
    4.5736   -3.9890    1.5258 C   0  0  1  0  0  0  0  0  0  0  0  0
    6.0987   -4.0001    1.2497 C   0  0  0  0  0  0  0  0  0  0  0  0
    2.7922   -0.2366    0.3910 H   0  0  0  0  0  0  0  0  0  0  0  0
    4.2438    0.4860   -0.2858 H   0  0  0  0  0  0  0  0  0  0  0  0
    4.1440    0.2657    1.4084 H   0  0  0  0  0  0  0  0  0  0  0  0
    5.5633   -1.4961    0.2842 H   0  0  0  0  0  0  0  0  0  0  0  0
    4.6732   -3.0448   -1.3567 H   0  0  0  0  0  0  0  0  0  0  0  0
    3.0549   -2.3948   -1.2148 H   0  0  0  0  0  0  0  0  0  0  0  0
    3.8151   -0.2772   -2.3177 H   0  0  0  0  0  0  0  0  0  0  0  0
    5.4633   -0.8633   -2.3187 H   0  0  0  0  0  0  0  0  0  0  0  0
    2.9280   -2.6149    1.3118 H   0  0  0  0  0  0  0  0  0  0  0  0
    5.0942   -1.1952    2.7764 H   0  0  0  0  0  0  0  0  0  0  0  0
    3.3796   -1.3848    3.1373 H   0  0  0  0  0  0  0  0  0  0  0  0
    5.7260   -2.9863    3.9299 H   0  0  0  0  0  0  0  0  0  0  0  0
    4.1755   -2.9150    4.7198 H   0  0  0  0  0  0  0  0  0  0  0  0
    4.9976   -5.1309    3.3389 H   0  0  0  0  0  0  0  0  0  0  0  0
    2.2038   -3.9402    3.1757 H   0  0  0  0  0  0  0  0  0  0  0  0
    1.1861   -5.9482    6.1923 H   0  0  0  0  0  0  0  0  0  0  0  0
    0.5844   -4.8198    4.9944 H   0  0  0  0  0  0  0  0  0  0  0  0
   -0.8779   -7.8237    4.2739 H   0  0  0  0  0  0  0  0  0  0  0  0
    0.2452   -5.5849    2.5789 H   0  0  0  0  0  0  0  0  0  0  0  0
   -0.5516   -7.2687    1.3424 H   0  0  0  0  0  0  0  0  0  0  0  0
    1.0740   -7.7835    0.9849 H   0  0  0  0  0  0  0  0  0  0  0  0
   -0.8663   -8.9078    2.9410 H   0  0  0  0  0  0  0  0  0  0  0  0
    0.0571   -9.7303    1.7560 H   0  0  0  0  0  0  0  0  0  0  0  0
    3.2284  -10.1822    3.5460 H   0  0  0  0  0  0  0  0  0  0  0  0
    2.9259   -9.0732    2.2109 H   0  0  0  0  0  0  0  0  0  0  0  0
    2.2598  -10.6839    2.1724 H   0  0  0  0  0  0  0  0  0  0  0  0
   -0.4176  -10.1210    4.6086 H   0  0  0  0  0  0  0  0  0  0  0  0
    1.5792  -12.0548    4.1145 H   0  0  0  0  0  0  0  0  0  0  0  0
    0.6395  -10.6275    6.6022 H   0  0  0  0  0  0  0  0  0  0  0  0
    2.2539  -10.6972    5.8688 H   0  0  0  0  0  0  0  0  0  0  0  0
    0.5113   -8.3176    6.4466 H   0  0  0  0  0  0  0  0  0  0  0  0
    2.2658   -8.4262    6.5705 H   0  0  0  0  0  0  0  0  0  0  0  0
    2.6042   -7.9757    4.3779 H   0  0  0  0  0  0  0  0  0  0  0  0
    3.0343   -6.7716    2.4483 H   0  0  0  0  0  0  0  0  0  0  0  0
    2.1213   -6.1046    0.1951 H   0  0  0  0  0  0  0  0  0  0  0  0
    1.8443   -4.4949    0.8054 H   0  0  0  0  0  0  0  0  0  0  0  0
    4.4973   -5.9773    0.6891 H   0  0  0  0  0  0  0  0  0  0  0  0
    3.9844   -4.7772   -0.4438 H   0  0  0  0  0  0  0  0  0  0  0  0
    6.5443   -4.9526    1.5407 H   0  0  0  0  0  0  0  0  0  0  0  0
    6.6233   -3.2175    1.7965 H   0  0  0  0  0  0  0  0  0  0  0  0
    6.3149   -3.8532    0.1910 H   0  0  0  0  0  0  0  0  0  0  0  0
  1  2  1  0
  1 33  1  0
  1 34  1  0
  1 35  1  0
  2  3  1  0
  2  8  1  0
  2 36  1  6
  3  4  1  0
  3 37  1  0
  3 38  1  0
  4  5  1  0
  4 39  1  0
  4 40  1  0
  5  6  2  0
  5  7  1  0
  8 31  1  0
  8  9  1  0
  8 41  1  6
  9 10  1  0
  9 42  1  0
  9 43  1  0
 10 11  1  0
 10 44  1  0
 10 45  1  0
 11 31  1  0
 11 12  1  0
 11 46  1  1
 12 28  1  0
 12 13  1  0
 12 47  1  1
 13 14  2  0
 13 15  1  0
 15 16  1  0
 15 48  1  0
 15 49  1  0
 16 27  1  0
 16 17  1  1
 16 18  1  0
 17 50  1  0
 18 19  1  0
 18 28  1  0
 18 51  1  1
 19 20  1  0
 19 52  1  0
 19 53  1  0
 20 21  1  0
 20 54  1  0
 20 55  1  0
 21 27  1  0
 21 22  1  6
 21 23  1  0
 22 56  1  0
 22 57  1  0
 22 58  1  0
 23 24  1  0
 23 25  1  0
 23 59  1  1
 24 60  1  0
 25 26  1  0
 25 61  1  0
 25 62  1  0
 26 27  1  0
 26 63  1  0
 26 64  1  0
 27 65  1  6
 28 29  1  0
 28 66  1  6
 29 30  1  0
 29 67  1  0
 29 68  1  0
 30 31  1  0
 30 69  1  0
 30 70  1  0
 31 32  1  1
 32 71  1  0
 32 72  1  0
 32 73  1  0
M  CHG  1   7  -1
M  END
>  <i_m_ct_stereo_status>  (123) 
1

>  <s_m_source_file>  (123) 
/var/tmp/pbs.5076255.sched01/tmpxs4nfypl/40fgi3imsd.sdf

>  <i_m_source_file_index>  (123) 
18

>  <i_lp_mmshare_version>  (123) 
48012

>  <i_f3d_flags>  (123) 
0

>  <s_epik_input>  (123) 
Tz1DKFtPSF0pW0NIMl1bQ0gyXVtDQEBIXShbQ0gzXSlbQ0BIXShbQ0gyXVtDSDJdMSlbQ0BdKFtDSDNdKShbQ0gyXVtDSDJdMilbQ0BASF0xW0NASF0oQyg9TylbQ0gyXTMpW0NASF0yW0NASF0oW0NAXTM0W09IXSlbQ0gyXVtDSDJdW0NAQF01KFtDSDNdKVtDQEBIXTRbQ0gyXVtDSDJdW0NAQEhdNVtPSF0=

>  <s_epik_cmdline>  (123) 
J2VwaWtfcHl0aG9uJywgJy1waHQnLCAnMi4wJywgJy1waCcsICc3LjAnLCAnLXRuJywgJzgnLCAnLW1hJywgJzIwMCcsICctaW1hZScsICc8aW5maWxlLm1hZT4nLCAnLW9tYWUnLCAnPG91dGZpbGUubWFlPic=

>  <r_lp_tautomer_probability>  (123) 
1

>  <r_epik_Ionization_Penalty>  (123) 
0.00577174

>  <r_epik_Ionization_Penalty_Charging>  (123) 
0.00577008

>  <r_epik_Ionization_Penalty_Neutral>  (123) 
1.66166e-06

>  <r_epik_State_Penalty>  (123) 
0.00423599

>  <r_epik_Charging_Adjusted_Penalty>  (123) 
0.0100061

>  <i_epik_Tot_Q>  (123) 
-1

>  <i_epik_Tot_abs_Q>  (123) 
1

>  <s_lp_Force_Field>  (123) 
OPLS3e

>  <r_lp_Energy>  (123) 
50.8265

>  <b_lp_Chiralities_Consistent>  (123) 
1

>  <s_lp_Variant>  (123) 
47:0-1

>  <s_i_glide_gridfile>  (123) 
pfpi4k_grid

>  <i_i_glide_lignum>  (123) 
18

>  <i_i_glide_rotatable_bonds>  (123) 
6

>  <r_i_docking_score>  (123) 
-2.44362

>  <r_i_glide_ligand_efficiency>  (123) 
-0.0763631

>  <r_i_glide_ligand_efficiency_sa>  (123) 
-0.242438

>  <r_i_glide_ligand_efficiency_ln>  (123) 
-0.547193

>  <r_i_glide_gscore>  (123) 
-2.44362

>  <r_i_glide_lipo>  (123) 
-0.205107

>  <r_i_glide_hbond>  (123) 
-0.180802

>  <r_i_glide_metal>  (123) 
-0

>  <r_i_glide_rewards>  (123) 
-0.558607

>  <r_i_glide_evdw>  (123) 
-23.0747

>  <r_i_glide_ecoul>  (123) 
-4.31781

>  <r_i_glide_erotb>  (123) 
0.302307

>  <r_i_glide_esite>  (123) 
0

>  <r_i_glide_emodel>  (123) 
-30.9283

>  <r_i_glide_energy>  (123) 
-27.3926

>  <r_i_glide_einternal>  (123) 
4.27369

>  <r_i_glide_intrahb_reward>  (123) 
-0

>  <i_i_glide_confnum>  (123) 
3

>  <i_i_glide_posenum>  (123) 
35

>  <r_i_glide_eff_state_penalty>  (123) 
0

>  <ligand_id>  (123) 
47

>  <original_smiles>  (123) 
CC(CCC(=O)O)C1CCC2C3C(=O)CC4(O)C(CCC5(C)C(O)CCC54)C3CCC12C

>  <smiles>  (123) 
[H]OC1([H])C([H])([H])C([H])([H])C2([H])C3(O[H])C([H])([H])C(=O)C4([H])C([H])(C([H])([H])C([H])([H])C5(C([H])([H])[H])C4([H])C([H])([H])C([H])([H])C5([H])C([H])(C([H])([H])[H])C([H])([H])C([H])([H])C(=O)[O-])C3([H])C([H])([H])C([H])([H])C12C([H])([H])[H]

$$$$
48:0:0
     RDKit          3D

 43 45  0  0  1  0  0  0  0  0999 V2000
    2.1976    1.3279    2.1792 O   0  0  0  0  0  0  0  0  0  0  0  0
    1.4269    0.1522    2.0565 C   0  0  2  0  0  0  0  0  0  0  0  0
    0.5977    0.0015    3.3335 C   0  0  0  0  0  0  0  0  0  0  0  0
   -0.4377    0.9730    3.2876 O   0  0  0  0  0  0  0  0  0  0  0  0
   -1.0476    1.3283    4.4608 C   0  0  0  0  0  0  0  0  0  0  0  0
   -1.7761    2.5338    4.4868 C   0  0  0  0  0  0  0  0  0  0  0  0
   -2.3944    2.9391    5.6823 C   0  0  0  0  0  0  0  0  0  0  0  0
   -2.2888    2.1055    6.8152 C   0  0  0  0  0  0  0  0  0  0  0  0
   -1.6360    0.9206    6.8003 N   0  0  0  0  0  0  0  0  0  0  0  0
   -1.0130    0.5612    5.6640 C   0  0  0  0  0  0  0  0  0  0  0  0
    2.3887   -1.0339    1.8903 C   0  0  0  0  0  0  0  0  0  0  0  0
    3.0489   -1.0223    0.5620 N   0  0  1  0  0  0  0  0  0  0  0  0
    4.2734   -0.1927    0.4656 C   0  0  0  0  0  0  0  0  0  0  0  0
    4.9819   -0.6381   -0.8194 C   0  0  0  0  0  0  0  0  0  0  0  0
    4.3812   -2.0280   -1.1516 C   0  0  2  0  0  0  0  0  0  0  0  0
    5.4453   -3.0913   -1.3737 C   0  0  0  0  0  0  0  0  0  0  0  0
    5.2840   -3.5338   -2.8144 C   0  0  0  0  0  0  0  0  0  0  0  0
    4.6186   -2.4485   -3.4080 O   0  0  0  0  0  0  0  0  0  0  0  0
    3.6130   -2.0493   -2.4967 C   0  0  0  0  0  0  0  0  0  0  0  0
    3.4532   -2.3387    0.0402 C   0  0  0  0  0  0  0  0  0  0  0  0
    1.6098    2.0689    2.1179 H   0  0  0  0  0  0  0  0  0  0  0  0
    0.7674    0.2457    1.1939 H   0  0  0  0  0  0  0  0  0  0  0  0
    0.1305   -0.9831    3.3616 H   0  0  0  0  0  0  0  0  0  0  0  0
    1.2496    0.0940    4.2066 H   0  0  0  0  0  0  0  0  0  0  0  0
   -1.8426    3.1411    3.5900 H   0  0  0  0  0  0  0  0  0  0  0  0
   -2.9667    3.8522    5.7366 H   0  0  0  0  0  0  0  0  0  0  0  0
   -2.7716    2.3699    7.7423 H   0  0  0  0  0  0  0  0  0  0  0  0
   -0.4852   -0.3795    5.7128 H   0  0  0  0  0  0  0  0  0  0  0  0
    3.0962   -1.0960    2.7285 H   0  0  0  0  0  0  0  0  0  0  0  0
    1.7859   -1.9373    1.9773 H   0  0  0  0  0  0  0  0  0  0  0  0
    4.0849    0.8834    0.4812 H   0  0  0  0  0  0  0  0  0  0  0  0
    4.9423   -0.4152    1.2975 H   0  0  0  0  0  0  0  0  0  0  0  0
    4.7636    0.1127   -1.5811 H   0  0  0  0  0  0  0  0  0  0  0  0
    6.0713   -0.6037   -0.6874 H   0  0  0  0  0  0  0  0  0  0  0  0
    6.4528   -2.7128   -1.2502 H   0  0  0  0  0  0  0  0  0  0  0  0
    5.3376   -3.9624   -0.7361 H   0  0  0  0  0  0  0  0  0  0  0  0
    6.2521   -3.7531   -3.2672 H   0  0  0  0  0  0  0  0  0  0  0  0
    4.6542   -4.4150   -2.8211 H   0  0  0  0  0  0  0  0  0  0  0  0
    2.7815   -2.7648   -2.4995 H   0  0  0  0  0  0  0  0  0  0  0  0
    3.1680   -1.0957   -2.8019 H   0  0  0  0  0  0  0  0  0  0  0  0
    3.9930   -2.8572    0.8372 H   0  0  0  0  0  0  0  0  0  0  0  0
    2.5952   -2.9729   -0.2235 H   0  0  0  0  0  0  0  0  0  0  0  0
    2.3808   -0.7204   -0.1380 H   0  0  0  0  0  0  0  0  0  0  0  0
  1  2  1  0
  1 21  1  0
  2  3  1  0
  2 11  1  0
  2 22  1  6
  3  4  1  0
  3 23  1  0
  3 24  1  0
  4  5  1  0
  5 10  1  0
  5  6  2  0
  6  7  1  0
  6 25  1  0
  7  8  2  0
  7 26  1  0
  8  9  1  0
  8 27  1  0
  9 10  2  0
 10 28  1  0
 11 12  1  0
 11 29  1  0
 11 30  1  0
 12 20  1  0
 12 13  1  0
 12 43  1  6
 13 14  1  0
 13 31  1  0
 13 32  1  0
 15 14  1  1
 14 33  1  0
 14 34  1  0
 15 19  1  0
 15 16  1  0
 15 20  1  0
 16 17  1  0
 16 35  1  0
 16 36  1  0
 17 18  1  0
 17 37  1  0
 17 38  1  0
 18 19  1  0
 19 39  1  0
 19 40  1  0
 20 41  1  0
 20 42  1  0
M  CHG  1  12   1
M  END
>  <i_m_ct_stereo_status>  (124) 
1

>  <s_m_source_file>  (124) 
/var/tmp/pbs.5076255.sched01/tmpxs4nfypl/40fgi3imsd.sdf

>  <i_m_source_file_index>  (124) 
19

>  <i_lp_mmshare_version>  (124) 
48012

>  <i_f3d_flags>  (124) 
0

>  <s_epik_input>  (124) 
W2NIXTFuW2NIXVtjSF1bY0hdYzFPW0NIMl1bQ0BASF0oW09IXSlbQ0gyXU4oW0NIMl0yKVtDSDJdW0NIMl1bQ0BAXTIzW0NIMl1bQ0gyXU9bQ0gyXTM=

>  <s_epik_cmdline>  (124) 
J2VwaWtfcHl0aG9uJywgJy1waHQnLCAnMi4wJywgJy1waCcsICc3LjAnLCAnLXRuJywgJzgnLCAnLW1hJywgJzIwMCcsICctaW1hZScsICc8aW5maWxlLm1hZT4nLCAnLW9tYWUnLCAnPG91dGZpbGUubWFlPic=

>  <r_lp_tautomer_probability>  (124) 
1

>  <r_epik_Ionization_Penalty>  (124) 
0.0161552

>  <r_epik_Ionization_Penalty_Charging>  (124) 
0.0142602

>  <r_epik_Ionization_Penalty_Neutral>  (124) 
0.001895

>  <r_epik_State_Penalty>  (124) 
0.0111443

>  <r_epik_Charging_Adjusted_Penalty>  (124) 
0.0254045

>  <i_epik_Tot_Q>  (124) 
1

>  <i_epik_Tot_abs_Q>  (124) 
1

>  <s_lp_Force_Field>  (124) 
OPLS3e

>  <r_lp_Energy>  (124) 
19.1575

>  <b_lp_Chiralities_Consistent>  (124) 
1

>  <s_lp_Variant>  (124) 
48:0-1

>  <s_i_glide_gridfile>  (124) 
pfpi4k_grid

>  <i_i_glide_lignum>  (124) 
19

>  <i_i_glide_rotatable_bonds>  (124) 
6

>  <r_i_docking_score>  (124) 
-4.14478

>  <r_i_glide_ligand_efficiency>  (124) 
-0.207239

>  <r_i_glide_ligand_efficiency_sa>  (124) 
-0.562534

>  <r_i_glide_ligand_efficiency_ln>  (124) 
-1.0373

>  <r_i_glide_gscore>  (124) 
-4.14478

>  <r_i_glide_lipo>  (124) 
-0.383573

>  <r_i_glide_hbond>  (124) 
-0.322792

>  <r_i_glide_metal>  (124) 
-0

>  <r_i_glide_rewards>  (124) 
-1.5044

>  <r_i_glide_evdw>  (124) 
-22.4323

>  <r_i_glide_ecoul>  (124) 
-9.50186

>  <r_i_glide_erotb>  (124) 
0.693563

>  <r_i_glide_esite>  (124) 
-0.0806894

>  <r_i_glide_emodel>  (124) 
-40.0394

>  <r_i_glide_energy>  (124) 
-31.9341

>  <r_i_glide_einternal>  (124) 
5.54737

>  <r_i_glide_intrahb_reward>  (124) 
-0

>  <i_i_glide_confnum>  (124) 
4

>  <i_i_glide_posenum>  (124) 
40

>  <r_i_glide_eff_state_penalty>  (124) 
0

>  <ligand_id>  (124) 
48

>  <original_smiles>  (124) 
OC(COc1cccnc1)CN1CCC2(CCOC2)C1

>  <smiles>  (124) 
[H]OC([H])(C([H])([H])Oc1c([H])nc([H])c([H])c1[H])C([H])([H])[N+]1([H])C([H])([H])C([H])([H])C2(C([H])([H])OC([H])([H])C2([H])[H])C1([H])[H]

$$$$
48:0:1
     RDKit          3D

 43 45  0  0  1  0  0  0  0  0999 V2000
    0.7554    0.1291    1.6929 O   0  0  0  0  0  0  0  0  0  0  0  0
    1.3709   -1.0434    2.1799 C   0  0  2  0  0  0  0  0  0  0  0  0
    0.9446   -1.2911    3.6270 C   0  0  0  0  0  0  0  0  0  0  0  0
    1.1845   -2.6660    3.9251 O   0  0  0  0  0  0  0  0  0  0  0  0
    0.5608   -3.2324    5.0094 C   0  0  0  0  0  0  0  0  0  0  0  0
    0.8010   -4.5972    5.2843 C   0  0  0  0  0  0  0  0  0  0  0  0
    0.1471   -5.2153    6.3621 C   0  0  0  0  0  0  0  0  0  0  0  0
   -0.7383   -4.4460    7.1465 C   0  0  0  0  0  0  0  0  0  0  0  0
   -0.9844   -3.1421    6.9052 N   0  0  0  0  0  0  0  0  0  0  0  0
   -0.3411   -2.5520    5.8862 C   0  0  0  0  0  0  0  0  0  0  0  0
    2.8794   -0.8900    2.0621 C   0  0  0  0  0  0  0  0  0  0  0  0
    3.3029   -0.9058    0.6366 N   0  0  1  0  0  0  0  0  0  0  0  0
    4.5665   -0.2070    0.3905 C   0  0  0  0  0  0  0  0  0  0  0  0
    5.0261   -0.6590   -0.9992 C   0  0  0  0  0  0  0  0  0  0  0  0
    4.2242   -1.9598   -1.2996 C   0  0  2  0  0  0  0  0  0  0  0  0
    5.1306   -3.1090   -1.7242 C   0  0  0  0  0  0  0  0  0  0  0  0
    4.7147   -3.4628   -3.1295 C   0  0  0  0  0  0  0  0  0  0  0  0
    4.0929   -2.2874   -3.5847 O   0  0  0  0  0  0  0  0  0  0  0  0
    3.2713   -1.8355   -2.5173 C   0  0  0  0  0  0  0  0  0  0  0  0
    3.4581   -2.2307    0.0084 C   0  0  0  0  0  0  0  0  0  0  0  0
    0.5645   -0.0004    0.7579 H   0  0  0  0  0  0  0  0  0  0  0  0
    1.0212   -1.8721    1.5714 H   0  0  0  0  0  0  0  0  0  0  0  0
    1.4822   -0.6415    4.3252 H   0  0  0  0  0  0  0  0  0  0  0  0
   -0.1172   -1.0613    3.6728 H   0  0  0  0  0  0  0  0  0  0  0  0
    1.4835   -5.1659    4.6602 H   0  0  0  0  0  0  0  0  0  0  0  0
    0.3106   -6.2573    6.5992 H   0  0  0  0  0  0  0  0  0  0  0  0
   -1.2581   -4.8765    7.9865 H   0  0  0  0  0  0  0  0  0  0  0  0
   -0.5877   -1.5086    5.7746 H   0  0  0  0  0  0  0  0  0  0  0  0
    3.1404    0.0472    2.5598 H   0  0  0  0  0  0  0  0  0  0  0  0
    3.3767   -1.6646    2.6506 H   0  0  0  0  0  0  0  0  0  0  0  0
    4.4482    0.8749    0.4948 H   0  0  0  0  0  0  0  0  0  0  0  0
    5.3034   -0.5447    1.1115 H   0  0  0  0  0  0  0  0  0  0  0  0
    4.7884    0.1310   -1.7176 H   0  0  0  0  0  0  0  0  0  0  0  0
    6.1193   -0.7380   -1.0438 H   0  0  0  0  0  0  0  0  0  0  0  0
    6.1837   -2.8393   -1.7576 H   0  0  0  0  0  0  0  0  0  0  0  0
    5.0211   -3.9947   -1.1026 H   0  0  0  0  0  0  0  0  0  0  0  0
    5.5676   -3.7873   -3.7275 H   0  0  0  0  0  0  0  0  0  0  0  0
    3.9776   -4.2526   -3.0511 H   0  0  0  0  0  0  0  0  0  0  0  0
    2.3820   -2.4702   -2.4014 H   0  0  0  0  0  0  0  0  0  0  0  0
    2.8819   -0.8365   -2.7245 H   0  0  0  0  0  0  0  0  0  0  0  0
    4.0705   -2.8445    0.6697 H   0  0  0  0  0  0  0  0  0  0  0  0
    2.5137   -2.7716   -0.1397 H   0  0  0  0  0  0  0  0  0  0  0  0
    2.5844   -0.4846    0.0568 H   0  0  0  0  0  0  0  0  0  0  0  0
  1  2  1  0
  1 21  1  0
  2  3  1  0
  2 11  1  0
  2 22  1  6
  3  4  1  0
  3 23  1  0
  3 24  1  0
  4  5  1  0
  5 10  1  0
  5  6  2  0
  6  7  1  0
  6 25  1  0
  7  8  2  0
  7 26  1  0
  8  9  1  0
  8 27  1  0
  9 10  2  0
 10 28  1  0
 11 12  1  0
 11 29  1  0
 11 30  1  0
 12 20  1  0
 12 13  1  0
 12 43  1  6
 13 14  1  0
 13 31  1  0
 13 32  1  0
 15 14  1  1
 14 33  1  0
 14 34  1  0
 15 19  1  0
 15 16  1  0
 15 20  1  0
 16 17  1  0
 16 35  1  0
 16 36  1  0
 17 18  1  0
 17 37  1  0
 17 38  1  0
 18 19  1  0
 19 39  1  0
 19 40  1  0
 20 41  1  0
 20 42  1  0
M  CHG  1  12   1
M  END
>  <i_m_ct_stereo_status>  (125) 
1

>  <s_m_source_file>  (125) 
/var/tmp/pbs.5076255.sched01/tmpxs4nfypl/40fgi3imsd.sdf

>  <i_m_source_file_index>  (125) 
19

>  <i_lp_mmshare_version>  (125) 
48012

>  <i_f3d_flags>  (125) 
0

>  <s_epik_input>  (125) 
W2NIXTFuW2NIXVtjSF1bY0hdYzFPW0NIMl1bQ0BASF0oW09IXSlbQ0gyXU4oW0NIMl0yKVtDSDJdW0NIMl1bQ0BAXTIzW0NIMl1bQ0gyXU9bQ0gyXTM=

>  <s_epik_cmdline>  (125) 
J2VwaWtfcHl0aG9uJywgJy1waHQnLCAnMi4wJywgJy1waCcsICc3LjAnLCAnLXRuJywgJzgnLCAnLW1hJywgJzIwMCcsICctaW1hZScsICc8aW5maWxlLm1hZT4nLCAnLW9tYWUnLCAnPG91dGZpbGUubWFlPic=

>  <r_lp_tautomer_probability>  (125) 
1

>  <r_epik_Ionization_Penalty>  (125) 
0.0161552

>  <r_epik_Ionization_Penalty_Charging>  (125) 
0.0142602

>  <r_epik_Ionization_Penalty_Neutral>  (125) 
0.001895

>  <r_epik_State_Penalty>  (125) 
0.0111443

>  <r_epik_Charging_Adjusted_Penalty>  (125) 
0.0254045

>  <i_epik_Tot_Q>  (125) 
1

>  <i_epik_Tot_abs_Q>  (125) 
1

>  <s_lp_Force_Field>  (125) 
OPLS3e

>  <r_lp_Energy>  (125) 
19.1575

>  <b_lp_Chiralities_Consistent>  (125) 
1

>  <s_lp_Variant>  (125) 
48:0-1

>  <s_i_glide_gridfile>  (125) 
pfpi4k_grid

>  <i_i_glide_lignum>  (125) 
19

>  <i_i_glide_rotatable_bonds>  (125) 
6

>  <r_i_docking_score>  (125) 
-3.97305

>  <r_i_glide_ligand_efficiency>  (125) 
-0.198652

>  <r_i_glide_ligand_efficiency_sa>  (125) 
-0.539226

>  <r_i_glide_ligand_efficiency_ln>  (125) 
-0.994323

>  <r_i_glide_gscore>  (125) 
-3.97305

>  <r_i_glide_lipo>  (125) 
-0.345175

>  <r_i_glide_hbond>  (125) 
-0.337688

>  <r_i_glide_metal>  (125) 
-0

>  <r_i_glide_rewards>  (125) 
-1.5044

>  <r_i_glide_evdw>  (125) 
-18.9634

>  <r_i_glide_ecoul>  (125) 
-9.78789

>  <r_i_glide_erotb>  (125) 
0.693563

>  <r_i_glide_esite>  (125) 
-0.0629944

>  <r_i_glide_emodel>  (125) 
-37.6405

>  <r_i_glide_energy>  (125) 
-28.7513

>  <r_i_glide_einternal>  (125) 
2.68416

>  <r_i_glide_intrahb_reward>  (125) 
-0

>  <i_i_glide_confnum>  (125) 
5

>  <i_i_glide_posenum>  (125) 
3

>  <r_i_glide_eff_state_penalty>  (125) 
0

>  <ligand_id>  (125) 
48

>  <original_smiles>  (125) 
OC(COc1cccnc1)CN1CCC2(CCOC2)C1

>  <smiles>  (125) 
[H]OC([H])(C([H])([H])Oc1c([H])nc([H])c([H])c1[H])C([H])([H])[N+]1([H])C([H])([H])C([H])([H])C2(C([H])([H])OC([H])([H])C2([H])[H])C1([H])[H]

$$$$
48:0:2
     RDKit          3D

 43 45  0  0  1  0  0  0  0  0999 V2000
    1.7157   -0.5611    3.7928 O   0  0  0  0  0  0  0  0  0  0  0  0
    2.1775   -0.2229    2.5095 C   0  0  2  0  0  0  0  0  0  0  0  0
    1.0996    0.5340    1.6858 C   0  0  0  0  0  0  0  0  0  0  0  0
    0.8948    1.8493    2.1987 O   0  0  0  0  0  0  0  0  0  0  0  0
   -0.0349    2.0352    3.1718 C   0  0  0  0  0  0  0  0  0  0  0  0
   -0.8016    1.0002    3.7265 C   0  0  0  0  0  0  0  0  0  0  0  0
   -1.7019    1.2704    4.7519 C   0  0  0  0  0  0  0  0  0  0  0  0
   -1.8675    2.6258    5.1806 C   0  0  0  0  0  0  0  0  0  0  0  0
   -1.1623    3.6334    4.6407 N   0  0  0  0  0  0  0  0  0  0  0  0
   -0.2688    3.3690    3.6771 C   0  0  0  0  0  0  0  0  0  0  0  0
    2.5315   -1.5843    1.8893 C   0  0  0  0  0  0  0  0  0  0  0  0
    3.0572   -1.4106    0.5276 N   0  0  1  0  0  0  0  0  0  0  0  0
    4.4338   -0.8905    0.4651 C   0  0  0  0  0  0  0  0  0  0  0  0
    4.8891   -1.1508   -0.9771 C   0  0  0  0  0  0  0  0  0  0  0  0
    3.9139   -2.2313   -1.5083 C   0  0  2  0  0  0  0  0  0  0  0  0
    4.6223   -3.4305   -2.0977 C   0  0  0  0  0  0  0  0  0  0  0  0
    4.2045   -3.4335   -3.5926 C   0  0  0  0  0  0  0  0  0  0  0  0
    3.8483   -2.0875   -3.8261 O   0  0  0  0  0  0  0  0  0  0  0  0
    3.0797   -1.7048   -2.6998 C   0  0  0  0  0  0  0  0  0  0  0  0
    3.0443   -2.6116   -0.3104 C   0  0  0  0  0  0  0  0  0  0  0  0
    1.4052    0.2309    4.2057 H   0  0  0  0  0  0  0  0  0  0  0  0
    3.0713    0.3962    2.6202 H   0  0  0  0  0  0  0  0  0  0  0  0
    1.4932    0.7011    0.6757 H   0  0  0  0  0  0  0  0  0  0  0  0
    0.1570    0.0028    1.5773 H   0  0  0  0  0  0  0  0  0  0  0  0
   -0.7005   -0.0458    3.3680 H   0  0  0  0  0  0  0  0  0  0  0  0
   -2.2701    0.4704    5.1957 H   0  0  0  0  0  0  0  0  0  0  0  0
   -2.5800    2.8519    5.9553 H   0  0  0  0  0  0  0  0  0  0  0  0
    0.2892    4.1934    3.2788 H   0  0  0  0  0  0  0  0  0  0  0  0
    3.2503   -2.1087    2.5369 H   0  0  0  0  0  0  0  0  0  0  0  0
    1.6377   -2.2229    1.8922 H   0  0  0  0  0  0  0  0  0  0  0  0
    4.5262    0.1624    0.7507 H   0  0  0  0  0  0  0  0  0  0  0  0
    5.0731   -1.4797    1.1292 H   0  0  0  0  0  0  0  0  0  0  0  0
    4.7997   -0.2163   -1.5413 H   0  0  0  0  0  0  0  0  0  0  0  0
    5.9583   -1.4203   -1.0069 H   0  0  0  0  0  0  0  0  0  0  0  0
    5.7155   -3.3563   -2.0670 H   0  0  0  0  0  0  0  0  0  0  0  0
    4.3265   -4.3943   -1.6645 H   0  0  0  0  0  0  0  0  0  0  0  0
    5.0318   -3.7897   -4.2353 H   0  0  0  0  0  0  0  0  0  0  0  0
    3.3320   -4.0858   -3.7149 H   0  0  0  0  0  0  0  0  0  0  0  0
    2.0847   -2.1652   -2.7451 H   0  0  0  0  0  0  0  0  0  0  0  0
    2.9375   -0.6155   -2.6856 H   0  0  0  0  0  0  0  0  0  0  0  0
    3.4844   -3.4233    0.2756 H   0  0  0  0  0  0  0  0  0  0  0  0
    2.0312   -2.9357   -0.5775 H   0  0  0  0  0  0  0  0  0  0  0  0
    2.4248   -0.7976    0.0206 H   0  0  0  0  0  0  0  0  0  0  0  0
  1  2  1  0
  1 21  1  0
  2  3  1  0
  2 11  1  0
  2 22  1  1
  3  4  1  0
  3 23  1  0
  3 24  1  0
  4  5  1  0
  5 10  1  0
  5  6  2  0
  6  7  1  0
  6 25  1  0
  7  8  2  0
  7 26  1  0
  8  9  1  0
  8 27  1  0
  9 10  2  0
 10 28  1  0
 11 12  1  0
 11 29  1  0
 11 30  1  0
 12 20  1  0
 12 13  1  0
 12 43  1  6
 13 14  1  0
 13 31  1  0
 13 32  1  0
 15 14  1  1
 14 33  1  0
 14 34  1  0
 15 19  1  0
 15 16  1  0
 15 20  1  0
 16 17  1  0
 16 35  1  0
 16 36  1  0
 17 18  1  0
 17 37  1  0
 17 38  1  0
 18 19  1  0
 19 39  1  0
 19 40  1  0
 20 41  1  0
 20 42  1  0
M  CHG  1  12   1
M  END
>  <i_m_ct_stereo_status>  (126) 
1

>  <s_m_source_file>  (126) 
/var/tmp/pbs.5076255.sched01/tmpxs4nfypl/40fgi3imsd.sdf

>  <i_m_source_file_index>  (126) 
19

>  <i_lp_mmshare_version>  (126) 
48012

>  <i_f3d_flags>  (126) 
0

>  <s_epik_input>  (126) 
W2NIXTFuW2NIXVtjSF1bY0hdYzFPW0NIMl1bQ0BASF0oW09IXSlbQ0gyXU4oW0NIMl0yKVtDSDJdW0NIMl1bQ0BAXTIzW0NIMl1bQ0gyXU9bQ0gyXTM=

>  <s_epik_cmdline>  (126) 
J2VwaWtfcHl0aG9uJywgJy1waHQnLCAnMi4wJywgJy1waCcsICc3LjAnLCAnLXRuJywgJzgnLCAnLW1hJywgJzIwMCcsICctaW1hZScsICc8aW5maWxlLm1hZT4nLCAnLW9tYWUnLCAnPG91dGZpbGUubWFlPic=

>  <r_lp_tautomer_probability>  (126) 
1

>  <r_epik_Ionization_Penalty>  (126) 
0.0161552

>  <r_epik_Ionization_Penalty_Charging>  (126) 
0.0142602

>  <r_epik_Ionization_Penalty_Neutral>  (126) 
0.001895

>  <r_epik_State_Penalty>  (126) 
0.0111443

>  <r_epik_Charging_Adjusted_Penalty>  (126) 
0.0254045

>  <i_epik_Tot_Q>  (126) 
1

>  <i_epik_Tot_abs_Q>  (126) 
1

>  <s_lp_Force_Field>  (126) 
OPLS3e

>  <r_lp_Energy>  (126) 
19.1575

>  <b_lp_Chiralities_Consistent>  (126) 
1

>  <s_lp_Variant>  (126) 
48:0-1

>  <s_i_glide_gridfile>  (126) 
pfpi4k_grid

>  <i_i_glide_lignum>  (126) 
19

>  <i_i_glide_rotatable_bonds>  (126) 
6

>  <r_i_docking_score>  (126) 
-3.68787

>  <r_i_glide_ligand_efficiency>  (126) 
-0.184393

>  <r_i_glide_ligand_efficiency_sa>  (126) 
-0.500521

>  <r_i_glide_ligand_efficiency_ln>  (126) 
-0.922952

>  <r_i_glide_gscore>  (126) 
-3.68787

>  <r_i_glide_lipo>  (126) 
-0.274584

>  <r_i_glide_hbond>  (126) 
-0.199381

>  <r_i_glide_metal>  (126) 
-0

>  <r_i_glide_rewards>  (126) 
-1.5044

>  <r_i_glide_evdw>  (126) 
-23.7125

>  <r_i_glide_ecoul>  (126) 
-7.56761

>  <r_i_glide_erotb>  (126) 
0.693563

>  <r_i_glide_esite>  (126) 
-0.082298

>  <r_i_glide_emodel>  (126) 
-36.3834

>  <r_i_glide_energy>  (126) 
-31.2801

>  <r_i_glide_einternal>  (126) 
8.19745

>  <r_i_glide_intrahb_reward>  (126) 
-0

>  <i_i_glide_confnum>  (126) 
3

>  <i_i_glide_posenum>  (126) 
37

>  <r_i_glide_eff_state_penalty>  (126) 
0

>  <ligand_id>  (126) 
48

>  <original_smiles>  (126) 
OC(COc1cccnc1)CN1CCC2(CCOC2)C1

>  <smiles>  (126) 
[H]OC([H])(C([H])([H])Oc1c([H])nc([H])c([H])c1[H])C([H])([H])[N+]1([H])C([H])([H])C([H])([H])C2(C([H])([H])OC([H])([H])C2([H])[H])C1([H])[H]

$$$$
48:1:0
     RDKit          3D

 42 44  0  0  1  0  0  0  0  0999 V2000
    1.6871    2.4837    2.0735 O   0  0  0  0  0  0  0  0  0  0  0  0
    1.2392    1.1614    1.8531 C   0  0  2  0  0  0  0  0  0  0  0  0
   -0.2791    1.0793    2.1272 C   0  0  0  0  0  0  0  0  0  0  0  0
   -0.5704    0.3493    3.3378 O   0  0  0  0  0  0  0  0  0  0  0  0
   -1.0568    1.0031    4.4408 C   0  0  0  0  0  0  0  0  0  0  0  0
   -1.2751    2.3964    4.4635 C   0  0  0  0  0  0  0  0  0  0  0  0
   -1.8714    2.9523    5.5993 C   0  0  0  0  0  0  0  0  0  0  0  0
   -2.1923    2.1437    6.6978 C   0  0  0  0  0  0  0  0  0  0  0  0
   -1.9459    0.8094    6.7133 N   0  0  0  0  0  0  0  0  0  0  0  0
   -1.3917    0.2647    5.6126 C   0  0  0  0  0  0  0  0  0  0  0  0
    2.0961    0.1914    2.6947 C   0  0  0  0  0  0  0  0  0  0  0  0
    3.3802   -0.1562    2.1150 N   0  0  0  0  0  0  0  0  0  0  0  0
    4.2068   -0.9537    3.0042 C   0  0  0  0  0  0  0  0  0  0  0  0
    5.3190   -1.5310    2.1306 C   0  0  0  0  0  0  0  0  0  0  0  0
    4.6557   -1.6084    0.7228 C   0  0  2  0  0  0  0  0  0  0  0  0
    4.6429   -3.0516    0.1914 C   0  0  0  0  0  0  0  0  0  0  0  0
    5.4843   -2.9805   -1.0723 C   0  0  0  0  0  0  0  0  0  0  0  0
    6.2721   -1.7874   -0.9409 O   0  0  0  0  0  0  0  0  0  0  0  0
    5.4489   -0.8406   -0.3533 C   0  0  0  0  0  0  0  0  0  0  0  0
    3.2595   -1.0124    0.9432 C   0  0  0  0  0  0  0  0  0  0  0  0
    1.1350    3.1009    1.5979 H   0  0  0  0  0  0  0  0  0  0  0  0
    1.3741    0.9473    0.7982 H   0  0  0  0  0  0  0  0  0  0  0  0
   -0.7392    2.0510    2.0877 H   0  0  0  0  0  0  0  0  0  0  0  0
   -0.7200    0.4693    1.3403 H   0  0  0  0  0  0  0  0  0  0  0  0
   -1.0099    3.0126    3.6205 H   0  0  0  0  0  0  0  0  0  0  0  0
   -2.0970    4.0029    5.6232 H   0  0  0  0  0  0  0  0  0  0  0  0
   -2.6610    2.5443    7.5836 H   0  0  0  0  0  0  0  0  0  0  0  0
   -1.2100   -0.8138    5.6539 H   0  0  0  0  0  0  0  0  0  0  0  0
    2.2567    0.6246    3.6850 H   0  0  0  0  0  0  0  0  0  0  0  0
    1.5479   -0.7407    2.8573 H   0  0  0  0  0  0  0  0  0  0  0  0
    4.5755   -0.3500    3.8365 H   0  0  0  0  0  0  0  0  0  0  0  0
    3.6055   -1.7763    3.4019 H   0  0  0  0  0  0  0  0  0  0  0  0
    6.1712   -0.8432    2.1383 H   0  0  0  0  0  0  0  0  0  0  0  0
    5.6330   -2.5012    2.5143 H   0  0  0  0  0  0  0  0  0  0  0  0
    5.1134   -3.7177    0.9171 H   0  0  0  0  0  0  0  0  0  0  0  0
    3.6366   -3.4210   -0.0361 H   0  0  0  0  0  0  0  0  0  0  0  0
    6.1491   -3.8333   -1.1494 H   0  0  0  0  0  0  0  0  0  0  0  0
    4.8623   -2.8907   -1.9676 H   0  0  0  0  0  0  0  0  0  0  0  0
    4.7847   -0.4200   -1.1175 H   0  0  0  0  0  0  0  0  0  0  0  0
    6.0152   -0.0114    0.0980 H   0  0  0  0  0  0  0  0  0  0  0  0
    2.5169   -1.8021    1.1200 H   0  0  0  0  0  0  0  0  0  0  0  0
    2.9002   -0.4463    0.0765 H   0  0  0  0  0  0  0  0  0  0  0  0
  1  2  1  0
  1 21  1  0
  2  3  1  0
  2 11  1  0
  2 22  1  6
  3  4  1  0
  3 23  1  0
  3 24  1  0
  4  5  1  0
  5 10  1  0
  5  6  2  0
  6  7  1  0
  6 25  1  0
  7  8  2  0
  7 26  1  0
  8  9  1  0
  8 27  1  0
  9 10  2  0
 10 28  1  0
 11 12  1  0
 11 29  1  0
 11 30  1  0
 12 20  1  0
 12 13  1  0
 13 14  1  0
 13 31  1  0
 13 32  1  0
 15 14  1  1
 14 33  1  0
 14 34  1  0
 15 19  1  0
 15 16  1  0
 15 20  1  0
 16 17  1  0
 16 35  1  0
 16 36  1  0
 17 18  1  0
 17 37  1  0
 17 38  1  0
 18 19  1  0
 19 39  1  0
 19 40  1  0
 20 41  1  0
 20 42  1  0
M  END
>  <i_m_ct_stereo_status>  (127) 
1

>  <s_m_source_file>  (127) 
/var/tmp/pbs.5076255.sched01/tmpxs4nfypl/40fgi3imsd.sdf

>  <i_m_source_file_index>  (127) 
20

>  <i_lp_mmshare_version>  (127) 
48012

>  <i_f3d_flags>  (127) 
0

>  <s_epik_input>  (127) 
W2NIXTFuW2NIXVtjSF1bY0hdYzFPW0NIMl1bQ0BASF0oW09IXSlbQ0gyXU4oW0NIMl0yKVtDSDJdW0NIMl1bQ0BAXTIzW0NIMl1bQ0gyXU9bQ0gyXTM=

>  <s_epik_cmdline>  (127) 
J2VwaWtfcHl0aG9uJywgJy1waHQnLCAnMi4wJywgJy1waCcsICc3LjAnLCAnLXRuJywgJzgnLCAnLW1hJywgJzIwMCcsICctaW1hZScsICc8aW5maWxlLm1hZT4nLCAnLW9tYWUnLCAnPG91dGZpbGUubWFlPic=

>  <r_lp_tautomer_probability>  (127) 
1

>  <r_epik_Ionization_Penalty>  (127) 
2.21767

>  <r_epik_Ionization_Penalty_Charging>  (127) 
0

>  <r_epik_Ionization_Penalty_Neutral>  (127) 
2.21767

>  <r_epik_State_Penalty>  (127) 
2.35975

>  <r_epik_Charging_Adjusted_Penalty>  (127) 
2.35975

>  <i_epik_Tot_Q>  (127) 
0

>  <i_epik_Tot_abs_Q>  (127) 
0

>  <s_lp_Force_Field>  (127) 
OPLS3e

>  <r_lp_Energy>  (127) 
11.1141

>  <b_lp_Chiralities_Consistent>  (127) 
1

>  <s_lp_Variant>  (127) 
48:0-2

>  <s_i_glide_gridfile>  (127) 
pfpi4k_grid

>  <i_i_glide_lignum>  (127) 
20

>  <i_i_glide_rotatable_bonds>  (127) 
6

>  <r_i_docking_score>  (127) 
-3.59586

>  <r_i_glide_ligand_efficiency>  (127) 
-0.179793

>  <r_i_glide_ligand_efficiency_sa>  (127) 
-0.488033

>  <r_i_glide_ligand_efficiency_ln>  (127) 
-0.899924

>  <r_i_glide_gscore>  (127) 
-3.59586

>  <r_i_glide_lipo>  (127) 
-0.221072

>  <r_i_glide_hbond>  (127) 
-0.303449

>  <r_i_glide_metal>  (127) 
-0

>  <r_i_glide_rewards>  (127) 
-1.51127

>  <r_i_glide_evdw>  (127) 
-20.4095

>  <r_i_glide_ecoul>  (127) 
-8.25012

>  <r_i_glide_erotb>  (127) 
0.697929

>  <r_i_glide_esite>  (127) 
0

>  <r_i_glide_emodel>  (127) 
-29.7913

>  <r_i_glide_energy>  (127) 
-28.6596

>  <r_i_glide_einternal>  (127) 
11.5796

>  <r_i_glide_intrahb_reward>  (127) 
-0

>  <i_i_glide_confnum>  (127) 
6

>  <i_i_glide_posenum>  (127) 
25

>  <r_i_glide_eff_state_penalty>  (127) 
0

>  <ligand_id>  (127) 
48

>  <original_smiles>  (127) 
OC(COc1cccnc1)CN1CCC2(CCOC2)C1

>  <smiles>  (127) 
[H]OC([H])(C([H])([H])Oc1c([H])nc([H])c([H])c1[H])C([H])([H])N1C([H])([H])C([H])([H])C2(C([H])([H])OC([H])([H])C2([H])[H])C1([H])[H]

$$$$
48:1:1
     RDKit          3D

 42 44  0  0  1  0  0  0  0  0999 V2000
    1.3004    2.1726    2.3307 O   0  0  0  0  0  0  0  0  0  0  0  0
    0.6585    1.0740    1.7073 C   0  0  2  0  0  0  0  0  0  0  0  0
   -0.7906    1.0152    2.1814 C   0  0  0  0  0  0  0  0  0  0  0  0
   -0.8922    0.3606    3.4487 O   0  0  0  0  0  0  0  0  0  0  0  0
   -1.3522    1.0425    4.5416 C   0  0  0  0  0  0  0  0  0  0  0  0
   -1.6431    2.4105    4.5092 C   0  0  0  0  0  0  0  0  0  0  0  0
   -2.1922    3.0183    5.6381 C   0  0  0  0  0  0  0  0  0  0  0  0
   -2.4076    2.2571    6.8119 C   0  0  0  0  0  0  0  0  0  0  0  0
   -2.0946    0.9451    6.8729 N   0  0  0  0  0  0  0  0  0  0  0  0
   -1.5779    0.3467    5.7740 C   0  0  0  0  0  0  0  0  0  0  0  0
    1.4279   -0.2423    1.9235 C   0  0  0  0  0  0  0  0  0  0  0  0
    2.7525   -0.2620    1.3035 N   0  0  0  0  0  0  0  0  0  0  0  0
    3.7799    0.2801    2.1709 C   0  0  0  0  0  0  0  0  0  0  0  0
    5.1041   -0.1510    1.5619 C   0  0  0  0  0  0  0  0  0  0  0  0
    4.7311   -1.4596    0.8191 C   0  0  2  0  0  0  0  0  0  0  0  0
    5.5608   -2.6374    1.3188 C   0  0  0  0  0  0  0  0  0  0  0  0
    6.3657   -3.0607    0.0947 C   0  0  0  0  0  0  0  0  0  0  0  0
    6.3884   -1.9401   -0.7830 O   0  0  0  0  0  0  0  0  0  0  0  0
    5.0932   -1.3801   -0.6863 C   0  0  0  0  0  0  0  0  0  0  0  0
    3.2187   -1.6011    1.0294 C   0  0  0  0  0  0  0  0  0  0  0  0
    0.9758    2.9643    1.9171 H   0  0  0  0  0  0  0  0  0  0  0  0
    0.6124    1.2807    0.6366 H   0  0  0  0  0  0  0  0  0  0  0  0
   -1.2024    1.9996    2.1251 H   0  0  0  0  0  0  0  0  0  0  0  0
   -1.3671    0.4096    1.4936 H   0  0  0  0  0  0  0  0  0  0  0  0
   -1.4781    3.0202    3.6289 H   0  0  0  0  0  0  0  0  0  0  0  0
   -2.4613    4.0528    5.6252 H   0  0  0  0  0  0  0  0  0  0  0  0
   -2.8340    2.7013    7.7151 H   0  0  0  0  0  0  0  0  0  0  0  0
   -1.3493   -0.7084    5.8709 H   0  0  0  0  0  0  0  0  0  0  0  0
    1.5030   -0.4597    3.0001 H   0  0  0  0  0  0  0  0  0  0  0  0
    0.8170   -1.0480    1.4957 H   0  0  0  0  0  0  0  0  0  0  0  0
    3.6875    1.3602    2.2774 H   0  0  0  0  0  0  0  0  0  0  0  0
    3.6892   -0.1743    3.1635 H   0  0  0  0  0  0  0  0  0  0  0  0
    5.4660    0.6036    0.8584 H   0  0  0  0  0  0  0  0  0  0  0  0
    5.8482   -0.2738    2.3499 H   0  0  0  0  0  0  0  0  0  0  0  0
    6.2425   -2.3194    2.1078 H   0  0  0  0  0  0  0  0  0  0  0  0
    4.9488   -3.4535    1.7085 H   0  0  0  0  0  0  0  0  0  0  0  0
    7.3770   -3.3135    0.3827 H   0  0  0  0  0  0  0  0  0  0  0  0
    5.8909   -3.9107   -0.3962 H   0  0  0  0  0  0  0  0  0  0  0  0
    4.4058   -1.9689   -1.3155 H   0  0  0  0  0  0  0  0  0  0  0  0
    5.0717   -0.3466   -1.0668 H   0  0  0  0  0  0  0  0  0  0  0  0
    3.0140   -2.2498    1.8785 H   0  0  0  0  0  0  0  0  0  0  0  0
    2.6863   -2.0168    0.1689 H   0  0  0  0  0  0  0  0  0  0  0  0
  1  2  1  0
  1 21  1  0
  2  3  1  0
  2 11  1  0
  2 22  1  6
  3  4  1  0
  3 23  1  0
  3 24  1  0
  4  5  1  0
  5 10  1  0
  5  6  2  0
  6  7  1  0
  6 25  1  0
  7  8  2  0
  7 26  1  0
  8  9  1  0
  8 27  1  0
  9 10  2  0
 10 28  1  0
 11 12  1  0
 11 29  1  0
 11 30  1  0
 12 20  1  0
 12 13  1  0
 13 14  1  0
 13 31  1  0
 13 32  1  0
 15 14  1  1
 14 33  1  0
 14 34  1  0
 15 19  1  0
 15 16  1  0
 15 20  1  0
 16 17  1  0
 16 35  1  0
 16 36  1  0
 17 18  1  0
 17 37  1  0
 17 38  1  0
 18 19  1  0
 19 39  1  0
 19 40  1  0
 20 41  1  0
 20 42  1  0
M  END
>  <i_m_ct_stereo_status>  (128) 
1

>  <s_m_source_file>  (128) 
/var/tmp/pbs.5076255.sched01/tmpxs4nfypl/40fgi3imsd.sdf

>  <i_m_source_file_index>  (128) 
20

>  <i_lp_mmshare_version>  (128) 
48012

>  <i_f3d_flags>  (128) 
0

>  <s_epik_input>  (128) 
W2NIXTFuW2NIXVtjSF1bY0hdYzFPW0NIMl1bQ0BASF0oW09IXSlbQ0gyXU4oW0NIMl0yKVtDSDJdW0NIMl1bQ0BAXTIzW0NIMl1bQ0gyXU9bQ0gyXTM=

>  <s_epik_cmdline>  (128) 
J2VwaWtfcHl0aG9uJywgJy1waHQnLCAnMi4wJywgJy1waCcsICc3LjAnLCAnLXRuJywgJzgnLCAnLW1hJywgJzIwMCcsICctaW1hZScsICc8aW5maWxlLm1hZT4nLCAnLW9tYWUnLCAnPG91dGZpbGUubWFlPic=

>  <r_lp_tautomer_probability>  (128) 
1

>  <r_epik_Ionization_Penalty>  (128) 
2.21767

>  <r_epik_Ionization_Penalty_Charging>  (128) 
0

>  <r_epik_Ionization_Penalty_Neutral>  (128) 
2.21767

>  <r_epik_State_Penalty>  (128) 
2.35975

>  <r_epik_Charging_Adjusted_Penalty>  (128) 
2.35975

>  <i_epik_Tot_Q>  (128) 
0

>  <i_epik_Tot_abs_Q>  (128) 
0

>  <s_lp_Force_Field>  (128) 
OPLS3e

>  <r_lp_Energy>  (128) 
11.1141

>  <b_lp_Chiralities_Consistent>  (128) 
1

>  <s_lp_Variant>  (128) 
48:0-2

>  <s_i_glide_gridfile>  (128) 
pfpi4k_grid

>  <i_i_glide_lignum>  (128) 
20

>  <i_i_glide_rotatable_bonds>  (128) 
6

>  <r_i_docking_score>  (128) 
-3.53466

>  <r_i_glide_ligand_efficiency>  (128) 
-0.176733

>  <r_i_glide_ligand_efficiency_sa>  (128) 
-0.479727

>  <r_i_glide_ligand_efficiency_ln>  (128) 
-0.884608

>  <r_i_glide_gscore>  (128) 
-3.53466

>  <r_i_glide_lipo>  (128) 
-0.392841

>  <r_i_glide_hbond>  (128) 
-0.28652

>  <r_i_glide_metal>  (128) 
-0

>  <r_i_glide_rewards>  (128) 
-1.51127

>  <r_i_glide_evdw>  (128) 
-20.791

>  <r_i_glide_ecoul>  (128) 
-6.68268

>  <r_i_glide_erotb>  (128) 
0.697929

>  <r_i_glide_esite>  (128) 
0

>  <r_i_glide_emodel>  (128) 
-28.7265

>  <r_i_glide_energy>  (128) 
-27.4737

>  <r_i_glide_einternal>  (128) 
12.1004

>  <r_i_glide_intrahb_reward>  (128) 
-0

>  <i_i_glide_confnum>  (128) 
6

>  <i_i_glide_posenum>  (128) 
32

>  <r_i_glide_eff_state_penalty>  (128) 
0

>  <ligand_id>  (128) 
48

>  <original_smiles>  (128) 
OC(COc1cccnc1)CN1CCC2(CCOC2)C1

>  <smiles>  (128) 
[H]OC([H])(C([H])([H])Oc1c([H])nc([H])c([H])c1[H])C([H])([H])N1C([H])([H])C([H])([H])C2(C([H])([H])OC([H])([H])C2([H])[H])C1([H])[H]

$$$$
48:1:2
     RDKit          3D

 42 44  0  0  1  0  0  0  0  0999 V2000
    1.7556    2.2698    2.0780 O   0  0  0  0  0  0  0  0  0  0  0  0
    1.3043    0.9776    1.7120 C   0  0  2  0  0  0  0  0  0  0  0  0
   -0.2117    0.9267    1.9190 C   0  0  0  0  0  0  0  0  0  0  0  0
   -0.5301    0.6015    3.2773 O   0  0  0  0  0  0  0  0  0  0  0  0
   -1.0938    1.5375    4.0995 C   0  0  0  0  0  0  0  0  0  0  0  0
   -1.2210    1.2164    5.4694 C   0  0  0  0  0  0  0  0  0  0  0  0
   -1.8404    2.1219    6.3495 C   0  0  0  0  0  0  0  0  0  0  0  0
   -2.3087    3.3469    5.8099 C   0  0  0  0  0  0  0  0  0  0  0  0
   -2.1762    3.6805    4.5157 N   0  0  0  0  0  0  0  0  0  0  0  0
   -1.5934    2.8076    3.6793 C   0  0  0  0  0  0  0  0  0  0  0  0
    2.0702   -0.1040    2.4910 C   0  0  0  0  0  0  0  0  0  0  0  0
    3.3991   -0.3995    1.9649 N   0  0  0  0  0  0  0  0  0  0  0  0
    4.1837   -1.2293    2.8490 C   0  0  0  0  0  0  0  0  0  0  0  0
    5.3654   -1.7147    2.0112 C   0  0  0  0  0  0  0  0  0  0  0  0
    4.8030   -1.7155    0.5663 C   0  0  2  0  0  0  0  0  0  0  0  0
    4.8593   -3.1154   -0.0612 C   0  0  0  0  0  0  0  0  0  0  0  0
    5.7857   -2.9497   -1.2588 C   0  0  0  0  0  0  0  0  0  0  0  0
    6.5434   -1.7808   -0.9840 O   0  0  0  0  0  0  0  0  0  0  0  0
    5.6289   -0.8483   -0.3773 C   0  0  0  0  0  0  0  0  0  0  0  0
    3.3793   -1.1642    0.7246 C   0  0  0  0  0  0  0  0  0  0  0  0
    1.2182    2.9107    1.6375 H   0  0  0  0  0  0  0  0  0  0  0  0
    1.4698    0.8645    0.6445 H   0  0  0  0  0  0  0  0  0  0  0  0
   -0.6706    1.8194    1.5043 H   0  0  0  0  0  0  0  0  0  0  0  0
   -0.5963    0.1013    1.3300 H   0  0  0  0  0  0  0  0  0  0  0  0
   -0.8462    0.2720    5.8488 H   0  0  0  0  0  0  0  0  0  0  0  0
   -1.9585    1.9183    7.3977 H   0  0  0  0  0  0  0  0  0  0  0  0
   -2.7972    4.0684    6.4403 H   0  0  0  0  0  0  0  0  0  0  0  0
   -1.5494    3.1367    2.6534 H   0  0  0  0  0  0  0  0  0  0  0  0
    2.1583    0.2129    3.5310 H   0  0  0  0  0  0  0  0  0  0  0  0
    1.4845   -1.0253    2.5046 H   0  0  0  0  0  0  0  0  0  0  0  0
    4.4984   -0.6844    3.7381 H   0  0  0  0  0  0  0  0  0  0  0  0
    3.5919   -2.0929    3.1545 H   0  0  0  0  0  0  0  0  0  0  0  0
    6.2090   -1.0248    2.1181 H   0  0  0  0  0  0  0  0  0  0  0  0
    5.6933   -2.6971    2.3657 H   0  0  0  0  0  0  0  0  0  0  0  0
    5.2962   -3.8411    0.6297 H   0  0  0  0  0  0  0  0  0  0  0  0
    3.8787   -3.4990   -0.3701 H   0  0  0  0  0  0  0  0  0  0  0  0
    6.4622   -3.7848   -1.3528 H   0  0  0  0  0  0  0  0  0  0  0  0
    5.2171   -2.8116   -2.1802 H   0  0  0  0  0  0  0  0  0  0  0  0
    5.0353   -0.4011   -1.1764 H   0  0  0  0  0  0  0  0  0  0  0  0
    6.1695   -0.0566    0.1298 H   0  0  0  0  0  0  0  0  0  0  0  0
    2.6526   -1.9793    0.8047 H   0  0  0  0  0  0  0  0  0  0  0  0
    3.0540   -0.5563   -0.1214 H   0  0  0  0  0  0  0  0  0  0  0  0
  1  2  1  0
  1 21  1  0
  2  3  1  0
  2 11  1  0
  2 22  1  6
  3  4  1  0
  3 23  1  0
  3 24  1  0
  4  5  1  0
  5 10  1  0
  5  6  2  0
  6  7  1  0
  6 25  1  0
  7  8  2  0
  7 26  1  0
  8  9  1  0
  8 27  1  0
  9 10  2  0
 10 28  1  0
 11 12  1  0
 11 29  1  0
 11 30  1  0
 12 20  1  0
 12 13  1  0
 13 14  1  0
 13 31  1  0
 13 32  1  0
 15 14  1  1
 14 33  1  0
 14 34  1  0
 15 19  1  0
 15 16  1  0
 15 20  1  0
 16 17  1  0
 16 35  1  0
 16 36  1  0
 17 18  1  0
 17 37  1  0
 17 38  1  0
 18 19  1  0
 19 39  1  0
 19 40  1  0
 20 41  1  0
 20 42  1  0
M  END
>  <i_m_ct_stereo_status>  (129) 
1

>  <s_m_source_file>  (129) 
/var/tmp/pbs.5076255.sched01/tmpxs4nfypl/40fgi3imsd.sdf

>  <i_m_source_file_index>  (129) 
20

>  <i_lp_mmshare_version>  (129) 
48012

>  <i_f3d_flags>  (129) 
0

>  <s_epik_input>  (129) 
W2NIXTFuW2NIXVtjSF1bY0hdYzFPW0NIMl1bQ0BASF0oW09IXSlbQ0gyXU4oW0NIMl0yKVtDSDJdW0NIMl1bQ0BAXTIzW0NIMl1bQ0gyXU9bQ0gyXTM=

>  <s_epik_cmdline>  (129) 
J2VwaWtfcHl0aG9uJywgJy1waHQnLCAnMi4wJywgJy1waCcsICc3LjAnLCAnLXRuJywgJzgnLCAnLW1hJywgJzIwMCcsICctaW1hZScsICc8aW5maWxlLm1hZT4nLCAnLW9tYWUnLCAnPG91dGZpbGUubWFlPic=

>  <r_lp_tautomer_probability>  (129) 
1

>  <r_epik_Ionization_Penalty>  (129) 
2.21767

>  <r_epik_Ionization_Penalty_Charging>  (129) 
0

>  <r_epik_Ionization_Penalty_Neutral>  (129) 
2.21767

>  <r_epik_State_Penalty>  (129) 
2.35975

>  <r_epik_Charging_Adjusted_Penalty>  (129) 
2.35975

>  <i_epik_Tot_Q>  (129) 
0

>  <i_epik_Tot_abs_Q>  (129) 
0

>  <s_lp_Force_Field>  (129) 
OPLS3e

>  <r_lp_Energy>  (129) 
11.1141

>  <b_lp_Chiralities_Consistent>  (129) 
1

>  <s_lp_Variant>  (129) 
48:0-2

>  <s_i_glide_gridfile>  (129) 
pfpi4k_grid

>  <i_i_glide_lignum>  (129) 
20

>  <i_i_glide_rotatable_bonds>  (129) 
6

>  <r_i_docking_score>  (129) 
-3.11486

>  <r_i_glide_ligand_efficiency>  (129) 
-0.155743

>  <r_i_glide_ligand_efficiency_sa>  (129) 
-0.422751

>  <r_i_glide_ligand_efficiency_ln>  (129) 
-0.779546

>  <r_i_glide_gscore>  (129) 
-3.11486

>  <r_i_glide_lipo>  (129) 
-0.204942

>  <r_i_glide_hbond>  (129) 
-0.159353

>  <r_i_glide_metal>  (129) 
-0

>  <r_i_glide_rewards>  (129) 
-1.51127

>  <r_i_glide_evdw>  (129) 
-21.0393

>  <r_i_glide_ecoul>  (129) 
-5.90171

>  <r_i_glide_erotb>  (129) 
0.697929

>  <r_i_glide_esite>  (129) 
0

>  <r_i_glide_emodel>  (129) 
-30.4578

>  <r_i_glide_energy>  (129) 
-26.941

>  <r_i_glide_einternal>  (129) 
6.68667

>  <r_i_glide_intrahb_reward>  (129) 
-0

>  <i_i_glide_confnum>  (129) 
2

>  <i_i_glide_posenum>  (129) 
34

>  <r_i_glide_eff_state_penalty>  (129) 
0

>  <ligand_id>  (129) 
48

>  <original_smiles>  (129) 
OC(COc1cccnc1)CN1CCC2(CCOC2)C1

>  <smiles>  (129) 
[H]OC([H])(C([H])([H])Oc1c([H])nc([H])c([H])c1[H])C([H])([H])N1C([H])([H])C([H])([H])C2(C([H])([H])OC([H])([H])C2([H])[H])C1([H])[H]

$$$$
49:0:0
     RDKit          3D

 38 41  0  0  1  0  0  0  0  0999 V2000
    2.0989   -3.0686   -3.1120 C   0  0  0  0  0  0  0  0  0  0  0  0
    3.3826   -2.5000   -2.5388 C   0  0  0  0  0  0  0  0  0  0  0  0
    4.2651   -2.0299   -3.6957 C   0  0  0  0  0  0  0  0  0  0  0  0
    3.0267   -1.3054   -1.9112 O   0  0  0  0  0  0  0  0  0  0  0  0
    4.1724   -3.5203   -1.6753 C   0  0  2  0  0  0  0  0  0  0  0  0
    3.6171   -4.1225   -0.3370 C   0  0  0  0  0  0  0  0  0  0  0  0
    2.9939   -3.4408    0.6452 C   0  0  0  0  0  0  0  0  0  0  0  0
    3.5084   -2.0776    0.8365 C   0  0  2  0  0  0  0  0  0  0  0  0
    4.8793   -1.8903    0.2147 C   0  0  1  0  0  0  0  0  0  0  0  0
    4.6462   -1.7101    1.7388 C   0  0  0  0  0  0  0  0  0  0  0  0
    4.7135   -0.2839    2.2578 C   0  0  0  0  0  0  0  0  0  0  0  0
    5.0342   -2.6504    2.8623 C   0  0  0  0  0  0  0  0  0  0  0  0
    5.2880   -3.1207   -0.6970 C   0  0  2  0  0  0  0  0  0  0  0  0
    6.7605   -3.1022   -0.9539 C   0  0  0  0  0  0  0  0  0  0  0  0
    7.1395   -3.7967    0.3479 C   0  0  0  0  0  0  0  0  0  0  0  0
    8.2576   -3.7295    0.8434 O   0  0  0  0  0  0  0  0  0  0  0  0
    6.0147   -4.4349    0.8303 O   0  0  0  0  0  0  0  0  0  0  0  0
    5.0717   -4.5924   -0.2060 C   0  0  1  0  0  0  0  0  0  0  0  0
    2.2903   -3.9444   -3.7311 H   0  0  0  0  0  0  0  0  0  0  0  0
    1.5776   -2.3437   -3.7375 H   0  0  0  0  0  0  0  0  0  0  0  0
    1.4239   -3.3728   -2.3150 H   0  0  0  0  0  0  0  0  0  0  0  0
    4.5909   -2.8728   -4.3156 H   0  0  0  0  0  0  0  0  0  0  0  0
    5.1578   -1.5533   -3.2902 H   0  0  0  0  0  0  0  0  0  0  0  0
    3.7612   -1.3035   -4.3444 H   0  0  0  0  0  0  0  0  0  0  0  0
    2.1344   -1.3936   -1.5286 H   0  0  0  0  0  0  0  0  0  0  0  0
    4.5509   -4.2755   -2.3797 H   0  0  0  0  0  0  0  0  0  0  0  0
    2.7399   -3.9632    1.5523 H   0  0  0  0  0  0  0  0  0  0  0  0
    2.7352   -1.3415    0.7218 H   0  0  0  0  0  0  0  0  0  0  0  0
    5.0267   -0.9531   -0.3078 H   0  0  0  0  0  0  0  0  0  0  0  0
    5.7493   -0.0132    2.4711 H   0  0  0  0  0  0  0  0  0  0  0  0
    4.1173   -0.1709    3.1656 H   0  0  0  0  0  0  0  0  0  0  0  0
    4.3175    0.4017    1.5110 H   0  0  0  0  0  0  0  0  0  0  0  0
    6.1191   -2.6495    2.9706 H   0  0  0  0  0  0  0  0  0  0  0  0
    4.6925   -3.6667    2.6773 H   0  0  0  0  0  0  0  0  0  0  0  0
    4.5776   -2.3432    3.8072 H   0  0  0  0  0  0  0  0  0  0  0  0
    7.0194   -3.7390   -1.7955 H   0  0  0  0  0  0  0  0  0  0  0  0
    7.1905   -2.1074   -1.0862 H   0  0  0  0  0  0  0  0  0  0  0  0
    5.3998   -5.3764   -0.9041 H   0  0  0  0  0  0  0  0  0  0  0  0
  1  2  1  0
  1 19  1  0
  1 20  1  0
  1 21  1  0
  2  3  1  0
  2  4  1  0
  2  5  1  0
  3 22  1  0
  3 23  1  0
  3 24  1  0
  4 25  1  0
  5 13  1  0
  5  6  1  0
  5 26  1  6
  6 18  1  0
  6  7  2  0
  7  8  1  0
  7 27  1  0
  8 10  1  0
  8  9  1  0
  8 28  1  6
  9 10  1  0
  9 13  1  0
  9 29  1  6
 10 11  1  0
 10 12  1  0
 11 30  1  0
 11 31  1  0
 11 32  1  0
 12 33  1  0
 12 34  1  0
 12 35  1  0
 13 18  1  0
 13 14  1  6
 14 15  1  0
 14 36  1  0
 14 37  1  0
 15 16  2  0
 15 17  1  0
 17 18  1  0
 18 38  1  6
M  END
>  <i_m_ct_stereo_status>  (130) 
1

>  <s_m_source_file>  (130) 
/var/tmp/pbs.5076255.sched01/tmpxs4nfypl/40fgi3imsd.sdf

>  <i_m_source_file_index>  (130) 
21

>  <i_lp_mmshare_version>  (130) 
48012

>  <i_f3d_flags>  (130) 
0

>  <s_epik_input>  (130) 
W0NIMl0xQyg9TylPW0NASF0yQyhbQ0BIXTNDKFtDSDNdKShbQ0gzXSlbT0hdKT1bQ0hdW0NASF0oW0NAQEhdNFtDQEBdMTIzKUM0KFtDSDNdKVtDSDNd

>  <s_epik_cmdline>  (130) 
J2VwaWtfcHl0aG9uJywgJy1waHQnLCAnMi4wJywgJy1waCcsICc3LjAnLCAnLXRuJywgJzgnLCAnLW1hJywgJzIwMCcsICctaW1hZScsICc8aW5maWxlLm1hZT4nLCAnLW9tYWUnLCAnPG91dGZpbGUubWFlPic=

>  <r_lp_tautomer_probability>  (130) 
1

>  <r_epik_Ionization_Penalty>  (130) 
1.17286e-07

>  <r_epik_Ionization_Penalty_Charging>  (130) 
0

>  <r_epik_Ionization_Penalty_Neutral>  (130) 
1.17286e-07

>  <r_epik_State_Penalty>  (130) 
-0

>  <r_epik_Charging_Adjusted_Penalty>  (130) 
0

>  <i_epik_Tot_Q>  (130) 
0

>  <i_epik_Tot_abs_Q>  (130) 
0

>  <s_epik_Chemistry_Notes>  (130) 
This compound has an ester and may undergo hydrolysis at high or low pH.

>  <s_lp_Force_Field>  (130) 
OPLS3e

>  <r_lp_Energy>  (130) 
112.859

>  <b_lp_Chiralities_Consistent>  (130) 
1

>  <s_lp_Variant>  (130) 
49:0-1

>  <s_i_glide_gridfile>  (130) 
pfpi4k_grid

>  <i_i_glide_lignum>  (130) 
21

>  <i_i_glide_rotatable_bonds>  (130) 
2

>  <r_i_docking_score>  (130) 
-4.26431

>  <r_i_glide_ligand_efficiency>  (130) 
-0.236906

>  <r_i_glide_ligand_efficiency_sa>  (130) 
-0.62087

>  <r_i_glide_ligand_efficiency_ln>  (130) 
-1.09612

>  <r_i_glide_gscore>  (130) 
-4.26431

>  <r_i_glide_lipo>  (130) 
-0.6835

>  <r_i_glide_hbond>  (130) 
-0.16

>  <r_i_glide_metal>  (130) 
-0

>  <r_i_glide_rewards>  (130) 
-1.90878

>  <r_i_glide_evdw>  (130) 
-21.2591

>  <r_i_glide_ecoul>  (130) 
-4.88221

>  <r_i_glide_erotb>  (130) 
0.283259

>  <r_i_glide_esite>  (130) 
0

>  <r_i_glide_emodel>  (130) 
-32.892

>  <r_i_glide_energy>  (130) 
-26.1413

>  <r_i_glide_einternal>  (130) 
1.57651

>  <r_i_glide_intrahb_reward>  (130) 
-0

>  <i_i_glide_confnum>  (130) 
1

>  <i_i_glide_posenum>  (130) 
3

>  <r_i_glide_eff_state_penalty>  (130) 
0

>  <ligand_id>  (130) 
49

>  <original_smiles>  (130) 
CC(C)(O)C1C2=CC3C(C3(C)C)C13CC(=O)OC23

>  <smiles>  (130) 
[H]OC(C([H])([H])[H])(C([H])([H])[H])C1([H])C2=C([H])C3([H])C([H])(C3(C([H])([H])[H])C([H])([H])[H])C13C([H])([H])C(=O)OC23[H]

$$$$
49:0:1
     RDKit          3D

 38 41  0  0  1  0  0  0  0  0999 V2000
    2.6436   -6.0586    2.5263 C   0  0  0  0  0  0  0  0  0  0  0  0
    3.4096   -5.6315    1.2692 C   0  0  0  0  0  0  0  0  0  0  0  0
    4.3161   -6.7918    0.8017 C   0  0  0  0  0  0  0  0  0  0  0  0
    2.4116   -5.4825    0.2783 O   0  0  0  0  0  0  0  0  0  0  0  0
    4.2841   -4.3737    1.5504 C   0  0  2  0  0  0  0  0  0  0  0  0
    3.7485   -2.8964    1.4217 C   0  0  0  0  0  0  0  0  0  0  0  0
    3.0013   -2.4250    0.4046 C   0  0  0  0  0  0  0  0  0  0  0  0
    3.2740   -3.0169   -0.9213 C   0  0  2  0  0  0  0  0  0  0  0  0
    4.6231   -3.7095   -0.9404 C   0  0  1  0  0  0  0  0  0  0  0  0
    4.3000   -2.5199   -1.8943 C   0  0  0  0  0  0  0  0  0  0  0  0
    4.1167   -2.8567   -3.3627 C   0  0  0  0  0  0  0  0  0  0  0  0
    4.7555   -1.0706   -1.7859 C   0  0  0  0  0  0  0  0  0  0  0  0
    5.2635   -3.8085    0.5116 C   0  0  2  0  0  0  0  0  0  0  0  0
    6.7341   -4.0745    0.4359 C   0  0  0  0  0  0  0  0  0  0  0  0
    7.1212   -2.6134    0.2018 C   0  0  0  0  0  0  0  0  0  0  0  0
    8.1507   -2.2507   -0.3524 O   0  0  0  0  0  0  0  0  0  0  0  0
    6.0947   -1.8262    0.6499 O   0  0  0  0  0  0  0  0  0  0  0  0
    5.2517   -2.5882    1.4862 C   0  0  1  0  0  0  0  0  0  0  0  0
    3.3304   -6.2861    3.3425 H   0  0  0  0  0  0  0  0  0  0  0  0
    2.0517   -6.9553    2.3397 H   0  0  0  0  0  0  0  0  0  0  0  0
    1.9664   -5.2741    2.8645 H   0  0  0  0  0  0  0  0  0  0  0  0
    5.0850   -7.0030    1.5496 H   0  0  0  0  0  0  0  0  0  0  0  0
    4.8328   -6.5552   -0.1318 H   0  0  0  0  0  0  0  0  0  0  0  0
    3.7561   -7.7163    0.6381 H   0  0  0  0  0  0  0  0  0  0  0  0
    2.8283   -5.4355   -0.5695 H   0  0  0  0  0  0  0  0  0  0  0  0
    4.8194   -4.5917    2.4832 H   0  0  0  0  0  0  0  0  0  0  0  0
    2.7316   -1.3821    0.3810 H   0  0  0  0  0  0  0  0  0  0  0  0
    2.4020   -3.4802   -1.3605 H   0  0  0  0  0  0  0  0  0  0  0  0
    4.6470   -4.6697   -1.4510 H   0  0  0  0  0  0  0  0  0  0  0  0
    5.0816   -2.8633   -3.8707 H   0  0  0  0  0  0  0  0  0  0  0  0
    3.4582   -2.1351   -3.8496 H   0  0  0  0  0  0  0  0  0  0  0  0
    3.6646   -3.8468   -3.4716 H   0  0  0  0  0  0  0  0  0  0  0  0
    5.8162   -0.9995   -2.0163 H   0  0  0  0  0  0  0  0  0  0  0  0
    4.5682   -0.6553   -0.7984 H   0  0  0  0  0  0  0  0  0  0  0  0
    4.2005   -0.4355   -2.4811 H   0  0  0  0  0  0  0  0  0  0  0  0
    7.1365   -4.4202    1.3833 H   0  0  0  0  0  0  0  0  0  0  0  0
    7.0233   -4.7610   -0.3409 H   0  0  0  0  0  0  0  0  0  0  0  0
    5.7423   -2.7582    2.4504 H   0  0  0  0  0  0  0  0  0  0  0  0
  1  2  1  0
  1 19  1  0
  1 20  1  0
  1 21  1  0
  2  3  1  0
  2  4  1  0
  2  5  1  0
  3 22  1  0
  3 23  1  0
  3 24  1  0
  4 25  1  0
  5 13  1  0
  5  6  1  0
  5 26  1  1
  6 18  1  0
  6  7  2  0
  7  8  1  0
  7 27  1  0
  8 10  1  0
  8  9  1  0
  8 28  1  6
  9 10  1  0
  9 13  1  0
  9 29  1  6
 10 11  1  0
 10 12  1  0
 11 30  1  0
 11 31  1  0
 11 32  1  0
 12 33  1  0
 12 34  1  0
 12 35  1  0
 13 18  1  0
 13 14  1  6
 14 15  1  0
 14 36  1  0
 14 37  1  0
 15 16  2  0
 15 17  1  0
 17 18  1  0
 18 38  1  1
M  END
>  <i_m_ct_stereo_status>  (131) 
1

>  <s_m_source_file>  (131) 
/var/tmp/pbs.5076255.sched01/tmpxs4nfypl/40fgi3imsd.sdf

>  <i_m_source_file_index>  (131) 
21

>  <i_lp_mmshare_version>  (131) 
48012

>  <i_f3d_flags>  (131) 
0

>  <s_epik_input>  (131) 
W0NIMl0xQyg9TylPW0NASF0yQyhbQ0BIXTNDKFtDSDNdKShbQ0gzXSlbT0hdKT1bQ0hdW0NASF0oW0NAQEhdNFtDQEBdMTIzKUM0KFtDSDNdKVtDSDNd

>  <s_epik_cmdline>  (131) 
J2VwaWtfcHl0aG9uJywgJy1waHQnLCAnMi4wJywgJy1waCcsICc3LjAnLCAnLXRuJywgJzgnLCAnLW1hJywgJzIwMCcsICctaW1hZScsICc8aW5maWxlLm1hZT4nLCAnLW9tYWUnLCAnPG91dGZpbGUubWFlPic=

>  <r_lp_tautomer_probability>  (131) 
1

>  <r_epik_Ionization_Penalty>  (131) 
1.17286e-07

>  <r_epik_Ionization_Penalty_Charging>  (131) 
0

>  <r_epik_Ionization_Penalty_Neutral>  (131) 
1.17286e-07

>  <r_epik_State_Penalty>  (131) 
-0

>  <r_epik_Charging_Adjusted_Penalty>  (131) 
0

>  <i_epik_Tot_Q>  (131) 
0

>  <i_epik_Tot_abs_Q>  (131) 
0

>  <s_epik_Chemistry_Notes>  (131) 
This compound has an ester and may undergo hydrolysis at high or low pH.

>  <s_lp_Force_Field>  (131) 
OPLS3e

>  <r_lp_Energy>  (131) 
112.859

>  <b_lp_Chiralities_Consistent>  (131) 
1

>  <s_lp_Variant>  (131) 
49:0-1

>  <s_i_glide_gridfile>  (131) 
pfpi4k_grid

>  <i_i_glide_lignum>  (131) 
21

>  <i_i_glide_rotatable_bonds>  (131) 
2

>  <r_i_docking_score>  (131) 
-4.2023

>  <r_i_glide_ligand_efficiency>  (131) 
-0.233461

>  <r_i_glide_ligand_efficiency_sa>  (131) 
-0.611841

>  <r_i_glide_ligand_efficiency_ln>  (131) 
-1.08018

>  <r_i_glide_gscore>  (131) 
-4.2023

>  <r_i_glide_lipo>  (131) 
-0.536043

>  <r_i_glide_hbond>  (131) 
-0.337684

>  <r_i_glide_metal>  (131) 
-0

>  <r_i_glide_rewards>  (131) 
-1.84569

>  <r_i_glide_evdw>  (131) 
-24.3099

>  <r_i_glide_ecoul>  (131) 
-3.67102

>  <r_i_glide_erotb>  (131) 
0.283259

>  <r_i_glide_esite>  (131) 
0

>  <r_i_glide_emodel>  (131) 
-35.5424

>  <r_i_glide_energy>  (131) 
-27.9809

>  <r_i_glide_einternal>  (131) 
0.2362

>  <r_i_glide_intrahb_reward>  (131) 
-0

>  <i_i_glide_confnum>  (131) 
5

>  <i_i_glide_posenum>  (131) 
17

>  <r_i_glide_eff_state_penalty>  (131) 
0

>  <ligand_id>  (131) 
49

>  <original_smiles>  (131) 
CC(C)(O)C1C2=CC3C(C3(C)C)C13CC(=O)OC23

>  <smiles>  (131) 
[H]OC(C([H])([H])[H])(C([H])([H])[H])C1([H])C2=C([H])C3([H])C([H])(C3(C([H])([H])[H])C([H])([H])[H])C13C([H])([H])C(=O)OC23[H]

$$$$
49:0:2
     RDKit          3D

 38 41  0  0  1  0  0  0  0  0999 V2000
    4.1873   -3.3088   -3.4839 C   0  0  0  0  0  0  0  0  0  0  0  0
    3.5264   -2.1234   -2.7234 C   0  0  0  0  0  0  0  0  0  0  0  0
    3.2274   -1.0459   -3.7611 C   0  0  0  0  0  0  0  0  0  0  0  0
    2.2789   -2.6489   -2.3026 O   0  0  0  0  0  0  0  0  0  0  0  0
    4.2956   -1.5181   -1.4997 C   0  0  2  0  0  0  0  0  0  0  0  0
    5.7923   -1.8709   -1.1403 C   0  0  0  0  0  0  0  0  0  0  0  0
    6.3128   -3.1034   -1.0995 C   0  0  0  0  0  0  0  0  0  0  0  0
    5.3977   -4.1911   -0.6643 C   0  0  2  0  0  0  0  0  0  0  0  0
    4.1779   -3.6177    0.0307 C   0  0  1  0  0  0  0  0  0  0  0  0
    5.1280   -4.6085    0.7650 C   0  0  0  0  0  0  0  0  0  0  0  0
    4.5912   -6.0123    0.9731 C   0  0  0  0  0  0  0  0  0  0  0  0
    6.2263   -4.3537    1.7742 C   0  0  0  0  0  0  0  0  0  0  0  0
    4.1299   -2.0389   -0.0574 C   0  0  2  0  0  0  0  0  0  0  0  0
    3.2393   -1.4921    1.0184 C   0  0  0  0  0  0  0  0  0  0  0  0
    4.2968   -1.5130    2.1031 C   0  0  0  0  0  0  0  0  0  0  0  0
    4.0576   -1.5515    3.3124 O   0  0  0  0  0  0  0  0  0  0  0  0
    5.5401   -1.5451    1.5112 O   0  0  0  0  0  0  0  0  0  0  0  0
    5.4013   -1.1616    0.1658 C   0  0  1  0  0  0  0  0  0  0  0  0
    5.1968   -3.0652   -3.8186 H   0  0  0  0  0  0  0  0  0  0  0  0
    3.6196   -3.5602   -4.3993 H   0  0  0  0  0  0  0  0  0  0  0  0
    4.2123   -4.2269   -2.8862 H   0  0  0  0  0  0  0  0  0  0  0  0
    4.1397   -0.6109   -4.1655 H   0  0  0  0  0  0  0  0  0  0  0  0
    2.6299   -0.2423   -3.3312 H   0  0  0  0  0  0  0  0  0  0  0  0
    2.6606   -1.4542   -4.5943 H   0  0  0  0  0  0  0  0  0  0  0  0
    1.8037   -1.9680   -1.8259 H   0  0  0  0  0  0  0  0  0  0  0  0
    4.0609   -0.4388   -1.5065 H   0  0  0  0  0  0  0  0  0  0  0  0
    7.3402   -3.2572   -0.8007 H   0  0  0  0  0  0  0  0  0  0  0  0
    5.4252   -5.0525   -1.2790 H   0  0  0  0  0  0  0  0  0  0  0  0
    3.2282   -4.0537   -0.2630 H   0  0  0  0  0  0  0  0  0  0  0  0
    4.0472   -6.0871    1.9178 H   0  0  0  0  0  0  0  0  0  0  0  0
    5.4005   -6.7450    0.9641 H   0  0  0  0  0  0  0  0  0  0  0  0
    3.9116   -6.2743    0.1594 H   0  0  0  0  0  0  0  0  0  0  0  0
    5.7980   -4.1045    2.7446 H   0  0  0  0  0  0  0  0  0  0  0  0
    6.8847   -3.5625    1.4419 H   0  0  0  0  0  0  0  0  0  0  0  0
    6.8570   -5.2422    1.8723 H   0  0  0  0  0  0  0  0  0  0  0  0
    2.9438   -0.4625    0.8239 H   0  0  0  0  0  0  0  0  0  0  0  0
    2.3533   -2.1089    1.2302 H   0  0  0  0  0  0  0  0  0  0  0  0
    5.2509   -0.0700    0.0952 H   0  0  0  0  0  0  0  0  0  0  0  0
  1  2  1  0
  1 19  1  0
  1 20  1  0
  1 21  1  0
  2  3  1  0
  2  4  1  0
  2  5  1  0
  3 22  1  0
  3 23  1  0
  3 24  1  0
  4 25  1  0
  5 13  1  0
  5  6  1  0
  5 26  1  1
  6 18  1  0
  6  7  2  0
  7  8  1  0
  7 27  1  0
  8 10  1  0
  8  9  1  0
  8 28  1  6
  9 10  1  0
  9 13  1  0
  9 29  1  6
 10 11  1  0
 10 12  1  0
 11 30  1  0
 11 31  1  0
 11 32  1  0
 12 33  1  0
 12 34  1  0
 12 35  1  0
 13 18  1  0
 13 14  1  1
 14 15  1  0
 14 36  1  0
 14 37  1  0
 15 16  2  0
 15 17  1  0
 17 18  1  0
 18 38  1  1
M  END
>  <i_m_ct_stereo_status>  (132) 
1

>  <s_m_source_file>  (132) 
/var/tmp/pbs.5076255.sched01/tmpxs4nfypl/40fgi3imsd.sdf

>  <i_m_source_file_index>  (132) 
21

>  <i_lp_mmshare_version>  (132) 
48012

>  <i_f3d_flags>  (132) 
0

>  <s_epik_input>  (132) 
W0NIMl0xQyg9TylPW0NASF0yQyhbQ0BIXTNDKFtDSDNdKShbQ0gzXSlbT0hdKT1bQ0hdW0NASF0oW0NAQEhdNFtDQEBdMTIzKUM0KFtDSDNdKVtDSDNd

>  <s_epik_cmdline>  (132) 
J2VwaWtfcHl0aG9uJywgJy1waHQnLCAnMi4wJywgJy1waCcsICc3LjAnLCAnLXRuJywgJzgnLCAnLW1hJywgJzIwMCcsICctaW1hZScsICc8aW5maWxlLm1hZT4nLCAnLW9tYWUnLCAnPG91dGZpbGUubWFlPic=

>  <r_lp_tautomer_probability>  (132) 
1

>  <r_epik_Ionization_Penalty>  (132) 
1.17286e-07

>  <r_epik_Ionization_Penalty_Charging>  (132) 
0

>  <r_epik_Ionization_Penalty_Neutral>  (132) 
1.17286e-07

>  <r_epik_State_Penalty>  (132) 
-0

>  <r_epik_Charging_Adjusted_Penalty>  (132) 
0

>  <i_epik_Tot_Q>  (132) 
0

>  <i_epik_Tot_abs_Q>  (132) 
0

>  <s_epik_Chemistry_Notes>  (132) 
This compound has an ester and may undergo hydrolysis at high or low pH.

>  <s_lp_Force_Field>  (132) 
OPLS3e

>  <r_lp_Energy>  (132) 
112.859

>  <b_lp_Chiralities_Consistent>  (132) 
1

>  <s_lp_Variant>  (132) 
49:0-1

>  <s_i_glide_gridfile>  (132) 
pfpi4k_grid

>  <i_i_glide_lignum>  (132) 
21

>  <i_i_glide_rotatable_bonds>  (132) 
2

>  <r_i_docking_score>  (132) 
-4.09212

>  <r_i_glide_ligand_efficiency>  (132) 
-0.22734

>  <r_i_glide_ligand_efficiency_sa>  (132) 
-0.595799

>  <r_i_glide_ligand_efficiency_ln>  (132) 
-1.05186

>  <r_i_glide_gscore>  (132) 
-4.09212

>  <r_i_glide_lipo>  (132) 
-0.767402

>  <r_i_glide_hbond>  (132) 
-0.16

>  <r_i_glide_metal>  (132) 
-0

>  <r_i_glide_rewards>  (132) 
-1.73489

>  <r_i_glide_evdw>  (132) 
-25.5912

>  <r_i_glide_ecoul>  (132) 
-2.89013

>  <r_i_glide_erotb>  (132) 
0.283259

>  <r_i_glide_esite>  (132) 
0

>  <r_i_glide_emodel>  (132) 
-33.5948

>  <r_i_glide_energy>  (132) 
-28.4814

>  <r_i_glide_einternal>  (132) 
4.32665

>  <r_i_glide_intrahb_reward>  (132) 
-0

>  <i_i_glide_confnum>  (132) 
3

>  <i_i_glide_posenum>  (132) 
1

>  <r_i_glide_eff_state_penalty>  (132) 
0

>  <ligand_id>  (132) 
49

>  <original_smiles>  (132) 
CC(C)(O)C1C2=CC3C(C3(C)C)C13CC(=O)OC23

>  <smiles>  (132) 
[H]OC(C([H])([H])[H])(C([H])([H])[H])C1([H])C2=C([H])C3([H])C([H])(C3(C([H])([H])[H])C([H])([H])[H])C13C([H])([H])C(=O)OC23[H]

$$$$
50:0:0
     RDKit          3D

 34 35  0  0  1  0  0  0  0  0999 V2000
   -6.0356   -3.8161   -4.5182 C   0  0  0  0  0  0  0  0  0  0  0  0
   -7.0219   -4.2658   -5.4299 O   0  0  0  0  0  0  0  0  0  0  0  0
   -6.9932   -5.5882   -5.8110 C   0  0  0  0  0  0  0  0  0  0  0  0
   -6.0621   -6.5166   -5.2928 C   0  0  0  0  0  0  0  0  0  0  0  0
   -6.0859   -7.8534   -5.7175 C   0  0  0  0  0  0  0  0  0  0  0  0
   -7.0244   -8.2967   -6.6706 C   0  0  0  0  0  0  0  0  0  0  0  0
   -7.0010   -9.7740   -7.0641 C   0  0  0  0  0  0  0  0  0  0  0  0
   -5.6765  -10.1826   -7.7159 C   0  0  0  0  0  0  0  0  0  0  0  0
   -5.6927  -11.5793   -8.1269 N   0  0  0  0  0  0  0  0  0  0  0  0
   -4.5950  -12.3010   -8.3944 C   0  0  0  0  0  0  0  0  0  0  0  0
   -4.7985  -13.7396   -8.8556 C   0  0  0  0  0  0  0  0  0  0  0  0
   -3.4506  -11.8563   -8.3219 O   0  0  0  0  0  0  0  0  0  0  0  0
   -7.9657   -7.3831   -7.2104 C   0  0  0  0  0  0  0  0  0  0  0  0
   -8.8818   -7.8023   -8.1165 N   0  0  0  0  0  0  0  0  0  0  0  0
   -9.7902   -6.9306   -8.5958 C   0  0  0  0  0  0  0  0  0  0  0  0
   -9.8287   -5.5770   -8.2259 C   0  0  0  0  0  0  0  0  0  0  0  0
   -8.8786   -5.1150   -7.2943 C   0  0  0  0  0  0  0  0  0  0  0  0
   -7.9379   -6.0286   -6.7689 C   0  0  0  0  0  0  0  0  0  0  0  0
   -6.1723   -2.7559   -4.3205 H   0  0  0  0  0  0  0  0  0  0  0  0
   -5.0310   -3.9350   -4.9264 H   0  0  0  0  0  0  0  0  0  0  0  0
   -6.1406   -4.3161   -3.5554 H   0  0  0  0  0  0  0  0  0  0  0  0
   -5.3165   -6.2187   -4.5647 H   0  0  0  0  0  0  0  0  0  0  0  0
   -5.3677   -8.5464   -5.2917 H   0  0  0  0  0  0  0  0  0  0  0  0
   -7.1711  -10.3529   -6.1565 H   0  0  0  0  0  0  0  0  0  0  0  0
   -7.8105  -10.0494   -7.7388 H   0  0  0  0  0  0  0  0  0  0  0  0
   -5.5226   -9.5615   -8.5967 H   0  0  0  0  0  0  0  0  0  0  0  0
   -4.8504  -10.0080   -7.0227 H   0  0  0  0  0  0  0  0  0  0  0  0
   -6.5989  -12.0003   -8.2588 H   0  0  0  0  0  0  0  0  0  0  0  0
   -5.8543  -14.0113   -8.9403 H   0  0  0  0  0  0  0  0  0  0  0  0
   -4.3110  -14.4124   -8.1493 H   0  0  0  0  0  0  0  0  0  0  0  0
   -4.3266  -13.8774   -9.8304 H   0  0  0  0  0  0  0  0  0  0  0  0
  -10.5132   -7.3297   -9.2976 H   0  0  0  0  0  0  0  0  0  0  0  0
  -10.5852   -4.9261   -8.6383 H   0  0  0  0  0  0  0  0  0  0  0  0
   -8.8843   -4.0786   -6.9812 H   0  0  0  0  0  0  0  0  0  0  0  0
  1  2  1  0
  1 19  1  0
  1 20  1  0
  1 21  1  0
  2  3  1  0
  3 18  2  0
  3  4  1  0
  4  5  2  0
  4 22  1  0
  5  6  1  0
  5 23  1  0
  6  7  1  0
  6 13  2  0
  7  8  1  0
  7 24  1  0
  7 25  1  0
  8  9  1  0
  8 26  1  0
  8 27  1  0
  9 10  1  0
  9 28  1  0
 10 11  1  0
 10 12  2  0
 11 29  1  0
 11 30  1  0
 11 31  1  0
 13 18  1  0
 13 14  1  0
 14 15  2  0
 15 16  1  0
 15 32  1  0
 16 17  2  0
 16 33  1  0
 17 18  1  0
 17 34  1  0
M  END
>  <i_m_ct_stereo_status>  (133) 
1

>  <s_m_source_file>  (133) 
/var/tmp/pbs.5076255.sched01/tmpxs4nfypl/40fgi3imsd.sdf

>  <i_m_source_file_index>  (133) 
22

>  <i_lp_mmshare_version>  (133) 
48012

>  <i_f3d_flags>  (133) 
0

>  <s_epik_input>  (133) 
bjFbY0hdW2NIXVtjSF1jKGMxMiljKE9bQ0gzXSlbY0hdW2NIXWMyW0NIMl1bQ0gyXVtOSF1DKD1PKVtDSDNd

>  <s_epik_cmdline>  (133) 
J2VwaWtfcHl0aG9uJywgJy1waHQnLCAnMi4wJywgJy1waCcsICc3LjAnLCAnLXRuJywgJzgnLCAnLW1hJywgJzIwMCcsICctaW1hZScsICc8aW5maWxlLm1hZT4nLCAnLW9tYWUnLCAnPG91dGZpbGUubWFlPic=

>  <r_epik_Ionization_Penalty>  (133) 
0.038611

>  <r_epik_Ionization_Penalty_Charging>  (133) 
0

>  <r_epik_Ionization_Penalty_Neutral>  (133) 
0.038611

>  <r_epik_State_Penalty>  (133) 
0.0323892

>  <r_epik_Charging_Adjusted_Penalty>  (133) 
0.0323892

>  <i_epik_Tot_Q>  (133) 
0

>  <i_epik_Tot_abs_Q>  (133) 
0

>  <s_lp_Force_Field>  (133) 
OPLS3e

>  <r_lp_Energy>  (133) 
25.6362

>  <b_lp_Chiralities_Consistent>  (133) 
1

>  <s_lp_Variant>  (133) 
50:0-1

>  <s_i_glide_gridfile>  (133) 
pfpi4k_grid

>  <i_i_glide_lignum>  (133) 
22

>  <i_i_glide_rotatable_bonds>  (133) 
5

>  <r_i_docking_score>  (133) 
-5.10528

>  <r_i_glide_ligand_efficiency>  (133) 
-0.283626

>  <r_i_glide_ligand_efficiency_sa>  (133) 
-0.743312

>  <r_i_glide_ligand_efficiency_ln>  (133) 
-1.31228

>  <r_i_glide_gscore>  (133) 
-5.10528

>  <r_i_glide_lipo>  (133) 
-2.12218

>  <r_i_glide_hbond>  (133) 
-0.0140443

>  <r_i_glide_metal>  (133) 
-0

>  <r_i_glide_rewards>  (133) 
-2.38515

>  <r_i_glide_evdw>  (133) 
-23.7225

>  <r_i_glide_ecoul>  (133) 
-1.60817

>  <r_i_glide_erotb>  (133) 
0.873897

>  <r_i_glide_esite>  (133) 
-0.0304496

>  <r_i_glide_emodel>  (133) 
-34.9622

>  <r_i_glide_energy>  (133) 
-25.3307

>  <r_i_glide_einternal>  (133) 
1.44291

>  <r_i_glide_intrahb_reward>  (133) 
-0

>  <i_i_glide_confnum>  (133) 
1

>  <i_i_glide_posenum>  (133) 
13

>  <r_i_glide_eff_state_penalty>  (133) 
0

>  <ligand_id>  (133) 
50

>  <original_smiles>  (133) 
COc1ccc(CCNC(C)=O)c2ncccc12

>  <smiles>  (133) 
[H]c1nc2c(C([H])([H])C([H])([H])N([H])C(=O)C([H])([H])[H])c([H])c([H])c(OC([H])([H])[H])c2c([H])c1[H]

$$$$
50:0:1
     RDKit          3D

 34 35  0  0  1  0  0  0  0  0999 V2000
    8.3451   -2.6538   -0.7466 C   0  0  0  0  0  0  0  0  0  0  0  0
    7.1523   -2.0596   -0.2458 O   0  0  0  0  0  0  0  0  0  0  0  0
    6.1792   -2.8780    0.2953 C   0  0  0  0  0  0  0  0  0  0  0  0
    6.3350   -4.2788    0.4061 C   0  0  0  0  0  0  0  0  0  0  0  0
    5.3154   -5.0683    0.9604 C   0  0  0  0  0  0  0  0  0  0  0  0
    4.1101   -4.4888    1.4150 C   0  0  0  0  0  0  0  0  0  0  0  0
    3.0371   -5.4086    2.0068 C   0  0  0  0  0  0  0  0  0  0  0  0
    2.6617   -6.5783    1.0758 C   0  0  0  0  0  0  0  0  0  0  0  0
    1.6910   -7.4813    1.6803 N   0  0  0  0  0  0  0  0  0  0  0  0
    0.3687   -7.2772    1.7511 C   0  0  0  0  0  0  0  0  0  0  0  0
   -0.4703   -8.3765    2.3942 C   0  0  0  0  0  0  0  0  0  0  0  0
   -0.1773   -6.2614    1.3231 O   0  0  0  0  0  0  0  0  0  0  0  0
    3.9299   -3.0837    1.3269 C   0  0  0  0  0  0  0  0  0  0  0  0
    2.7861   -2.5170    1.7751 N   0  0  0  0  0  0  0  0  0  0  0  0
    2.6158   -1.1848    1.6814 C   0  0  0  0  0  0  0  0  0  0  0  0
    3.5937   -0.3259    1.1490 C   0  0  0  0  0  0  0  0  0  0  0  0
    4.7923   -0.8924    0.6780 C   0  0  0  0  0  0  0  0  0  0  0  0
    4.9779   -2.2924    0.7632 C   0  0  0  0  0  0  0  0  0  0  0  0
    9.0052   -1.8687   -1.1095 H   0  0  0  0  0  0  0  0  0  0  0  0
    8.1395   -3.3200   -1.5848 H   0  0  0  0  0  0  0  0  0  0  0  0
    8.8914   -3.1976    0.0242 H   0  0  0  0  0  0  0  0  0  0  0  0
    7.2287   -4.7854    0.0745 H   0  0  0  0  0  0  0  0  0  0  0  0
    5.4731   -6.1332    1.0310 H   0  0  0  0  0  0  0  0  0  0  0  0
    3.4055   -5.7870    2.9610 H   0  0  0  0  0  0  0  0  0  0  0  0
    2.1234   -4.8641    2.2466 H   0  0  0  0  0  0  0  0  0  0  0  0
    2.2853   -6.1967    0.1247 H   0  0  0  0  0  0  0  0  0  0  0  0
    3.5383   -7.1843    0.8528 H   0  0  0  0  0  0  0  0  0  0  0  0
    2.0482   -8.3554    2.0399 H   0  0  0  0  0  0  0  0  0  0  0  0
    0.1409   -9.2155    2.7281 H   0  0  0  0  0  0  0  0  0  0  0  0
   -1.2000   -8.7575    1.6802 H   0  0  0  0  0  0  0  0  0  0  0  0
   -1.0103   -7.9862    3.2555 H   0  0  0  0  0  0  0  0  0  0  0  0
    1.6767   -0.7929    2.0410 H   0  0  0  0  0  0  0  0  0  0  0  0
    3.4132    0.7368    1.0903 H   0  0  0  0  0  0  0  0  0  0  0  0
    5.5511   -0.2510    0.2542 H   0  0  0  0  0  0  0  0  0  0  0  0
  1  2  1  0
  1 19  1  0
  1 20  1  0
  1 21  1  0
  2  3  1  0
  3 18  2  0
  3  4  1  0
  4  5  2  0
  4 22  1  0
  5  6  1  0
  5 23  1  0
  6  7  1  0
  6 13  2  0
  7  8  1  0
  7 24  1  0
  7 25  1  0
  8  9  1  0
  8 26  1  0
  8 27  1  0
  9 10  1  0
  9 28  1  0
 10 11  1  0
 10 12  2  0
 11 29  1  0
 11 30  1  0
 11 31  1  0
 13 18  1  0
 13 14  1  0
 14 15  2  0
 15 16  1  0
 15 32  1  0
 16 17  2  0
 16 33  1  0
 17 18  1  0
 17 34  1  0
M  END
>  <i_m_ct_stereo_status>  (134) 
1

>  <s_m_source_file>  (134) 
/var/tmp/pbs.5076255.sched01/tmpxs4nfypl/40fgi3imsd.sdf

>  <i_m_source_file_index>  (134) 
22

>  <i_lp_mmshare_version>  (134) 
48012

>  <i_f3d_flags>  (134) 
0

>  <s_epik_input>  (134) 
bjFbY0hdW2NIXVtjSF1jKGMxMiljKE9bQ0gzXSlbY0hdW2NIXWMyW0NIMl1bQ0gyXVtOSF1DKD1PKVtDSDNd

>  <s_epik_cmdline>  (134) 
J2VwaWtfcHl0aG9uJywgJy1waHQnLCAnMi4wJywgJy1waCcsICc3LjAnLCAnLXRuJywgJzgnLCAnLW1hJywgJzIwMCcsICctaW1hZScsICc8aW5maWxlLm1hZT4nLCAnLW9tYWUnLCAnPG91dGZpbGUubWFlPic=

>  <r_epik_Ionization_Penalty>  (134) 
0.038611

>  <r_epik_Ionization_Penalty_Charging>  (134) 
0

>  <r_epik_Ionization_Penalty_Neutral>  (134) 
0.038611

>  <r_epik_State_Penalty>  (134) 
0.0323892

>  <r_epik_Charging_Adjusted_Penalty>  (134) 
0.0323892

>  <i_epik_Tot_Q>  (134) 
0

>  <i_epik_Tot_abs_Q>  (134) 
0

>  <s_lp_Force_Field>  (134) 
OPLS3e

>  <r_lp_Energy>  (134) 
25.6362

>  <b_lp_Chiralities_Consistent>  (134) 
1

>  <s_lp_Variant>  (134) 
50:0-1

>  <s_i_glide_gridfile>  (134) 
pfpi4k_grid

>  <i_i_glide_lignum>  (134) 
22

>  <i_i_glide_rotatable_bonds>  (134) 
5

>  <r_i_docking_score>  (134) 
-3.71617

>  <r_i_glide_ligand_efficiency>  (134) 
-0.206454

>  <r_i_glide_ligand_efficiency_sa>  (134) 
-0.541062

>  <r_i_glide_ligand_efficiency_ln>  (134) 
-0.955222

>  <r_i_glide_gscore>  (134) 
-3.71617

>  <r_i_glide_lipo>  (134) 
-0.379466

>  <r_i_glide_hbond>  (134) 
-0.417106

>  <r_i_glide_metal>  (134) 
-0

>  <r_i_glide_rewards>  (134) 
-1.74348

>  <r_i_glide_evdw>  (134) 
-20.8243

>  <r_i_glide_ecoul>  (134) 
-6.02228

>  <r_i_glide_erotb>  (134) 
0.873897

>  <r_i_glide_esite>  (134) 
-0.105452

>  <r_i_glide_emodel>  (134) 
-33.7638

>  <r_i_glide_energy>  (134) 
-26.8466

>  <r_i_glide_einternal>  (134) 
1.19151

>  <r_i_glide_intrahb_reward>  (134) 
-0

>  <i_i_glide_confnum>  (134) 
4

>  <i_i_glide_posenum>  (134) 
25

>  <r_i_glide_eff_state_penalty>  (134) 
0

>  <ligand_id>  (134) 
50

>  <original_smiles>  (134) 
COc1ccc(CCNC(C)=O)c2ncccc12

>  <smiles>  (134) 
[H]c1nc2c(C([H])([H])C([H])([H])N([H])C(=O)C([H])([H])[H])c([H])c([H])c(OC([H])([H])[H])c2c([H])c1[H]

$$$$
50:0:2
     RDKit          3D

 34 35  0  0  1  0  0  0  0  0999 V2000
    3.4040  -11.6865    3.5012 C   0  0  0  0  0  0  0  0  0  0  0  0
    2.1873  -10.9543    3.4061 O   0  0  0  0  0  0  0  0  0  0  0  0
    2.2169   -9.7040    2.8197 C   0  0  0  0  0  0  0  0  0  0  0  0
    3.3902   -9.1533    2.2728 C   0  0  0  0  0  0  0  0  0  0  0  0
    3.3823   -7.8851    1.6901 C   0  0  0  0  0  0  0  0  0  0  0  0
    2.1965   -7.1189    1.6256 C   0  0  0  0  0  0  0  0  0  0  0  0
    2.2161   -5.7363    0.9655 C   0  0  0  0  0  0  0  0  0  0  0  0
    3.5779   -5.3288    0.3680 C   0  0  0  0  0  0  0  0  0  0  0  0
    3.5412   -4.0502   -0.3232 N   0  0  0  0  0  0  0  0  0  0  0  0
    3.7971   -2.8687    0.2560 C   0  0  0  0  0  0  0  0  0  0  0  0
    3.7748   -1.6489   -0.6527 C   0  0  0  0  0  0  0  0  0  0  0  0
    4.0479   -2.7412    1.4522 O   0  0  0  0  0  0  0  0  0  0  0  0
    0.9908   -7.6484    2.1604 C   0  0  0  0  0  0  0  0  0  0  0  0
   -0.1637   -6.9277    2.1047 N   0  0  0  0  0  0  0  0  0  0  0  0
   -1.2896   -7.4606    2.6302 C   0  0  0  0  0  0  0  0  0  0  0  0
   -1.3392   -8.7137    3.2466 C   0  0  0  0  0  0  0  0  0  0  0  0
   -0.1607   -9.4717    3.3029 C   0  0  0  0  0  0  0  0  0  0  0  0
    1.0260   -8.9444    2.7612 C   0  0  0  0  0  0  0  0  0  0  0  0
    3.2149  -12.6496    3.9778 H   0  0  0  0  0  0  0  0  0  0  0  0
    4.1412  -11.1584    4.1100 H   0  0  0  0  0  0  0  0  0  0  0  0
    3.8354  -11.8883    2.5190 H   0  0  0  0  0  0  0  0  0  0  0  0
    4.3251   -9.6890    2.2811 H   0  0  0  0  0  0  0  0  0  0  0  0
    4.3262   -7.5373    1.2979 H   0  0  0  0  0  0  0  0  0  0  0  0
    1.4698   -5.7223    0.1737 H   0  0  0  0  0  0  0  0  0  0  0  0
    1.9097   -4.9891    1.6959 H   0  0  0  0  0  0  0  0  0  0  0  0
    4.3407   -5.3020    1.1452 H   0  0  0  0  0  0  0  0  0  0  0  0
    3.8933   -6.0714   -0.3612 H   0  0  0  0  0  0  0  0  0  0  0  0
    3.3913   -4.0882   -1.3233 H   0  0  0  0  0  0  0  0  0  0  0  0
    3.5317   -1.9184   -1.6806 H   0  0  0  0  0  0  0  0  0  0  0  0
    4.7440   -1.1497   -0.6456 H   0  0  0  0  0  0  0  0  0  0  0  0
    3.0157   -0.9512   -0.2991 H   0  0  0  0  0  0  0  0  0  0  0  0
   -2.1799   -6.8575    2.5726 H   0  0  0  0  0  0  0  0  0  0  0  0
   -2.2502   -9.1077    3.6732 H   0  0  0  0  0  0  0  0  0  0  0  0
   -0.1734  -10.4413    3.7711 H   0  0  0  0  0  0  0  0  0  0  0  0
  1  2  1  0
  1 19  1  0
  1 20  1  0
  1 21  1  0
  2  3  1  0
  3 18  2  0
  3  4  1  0
  4  5  2  0
  4 22  1  0
  5  6  1  0
  5 23  1  0
  6  7  1  0
  6 13  2  0
  7  8  1  0
  7 24  1  0
  7 25  1  0
  8  9  1  0
  8 26  1  0
  8 27  1  0
  9 10  1  0
  9 28  1  0
 10 11  1  0
 10 12  2  0
 11 29  1  0
 11 30  1  0
 11 31  1  0
 13 18  1  0
 13 14  1  0
 14 15  2  0
 15 16  1  0
 15 32  1  0
 16 17  2  0
 16 33  1  0
 17 18  1  0
 17 34  1  0
M  END
>  <i_m_ct_stereo_status>  (135) 
1

>  <s_m_source_file>  (135) 
/var/tmp/pbs.5076255.sched01/tmpxs4nfypl/40fgi3imsd.sdf

>  <i_m_source_file_index>  (135) 
22

>  <i_lp_mmshare_version>  (135) 
48012

>  <i_f3d_flags>  (135) 
0

>  <s_epik_input>  (135) 
bjFbY0hdW2NIXVtjSF1jKGMxMiljKE9bQ0gzXSlbY0hdW2NIXWMyW0NIMl1bQ0gyXVtOSF1DKD1PKVtDSDNd

>  <s_epik_cmdline>  (135) 
J2VwaWtfcHl0aG9uJywgJy1waHQnLCAnMi4wJywgJy1waCcsICc3LjAnLCAnLXRuJywgJzgnLCAnLW1hJywgJzIwMCcsICctaW1hZScsICc8aW5maWxlLm1hZT4nLCAnLW9tYWUnLCAnPG91dGZpbGUubWFlPic=

>  <r_epik_Ionization_Penalty>  (135) 
0.038611

>  <r_epik_Ionization_Penalty_Charging>  (135) 
0

>  <r_epik_Ionization_Penalty_Neutral>  (135) 
0.038611

>  <r_epik_State_Penalty>  (135) 
0.0323892

>  <r_epik_Charging_Adjusted_Penalty>  (135) 
0.0323892

>  <i_epik_Tot_Q>  (135) 
0

>  <i_epik_Tot_abs_Q>  (135) 
0

>  <s_lp_Force_Field>  (135) 
OPLS3e

>  <r_lp_Energy>  (135) 
25.6362

>  <b_lp_Chiralities_Consistent>  (135) 
1

>  <s_lp_Variant>  (135) 
50:0-1

>  <s_i_glide_gridfile>  (135) 
pfpi4k_grid

>  <i_i_glide_lignum>  (135) 
22

>  <i_i_glide_rotatable_bonds>  (135) 
5

>  <r_i_docking_score>  (135) 
-2.69464

>  <r_i_glide_ligand_efficiency>  (135) 
-0.149702

>  <r_i_glide_ligand_efficiency_sa>  (135) 
-0.392331

>  <r_i_glide_ligand_efficiency_ln>  (135) 
-0.692644

>  <r_i_glide_gscore>  (135) 
-2.69464

>  <r_i_glide_lipo>  (135) 
-0.0262547

>  <r_i_glide_hbond>  (135) 
-0.0956064

>  <r_i_glide_metal>  (135) 
-0

>  <r_i_glide_rewards>  (135) 
-1.74348

>  <r_i_glide_evdw>  (135) 
-23.6531

>  <r_i_glide_ecoul>  (135) 
-3.28544

>  <r_i_glide_erotb>  (135) 
0.873897

>  <r_i_glide_esite>  (135) 
-0.0277226

>  <r_i_glide_emodel>  (135) 
-31.0445

>  <r_i_glide_energy>  (135) 
-26.9385

>  <r_i_glide_einternal>  (135) 
2.43146

>  <r_i_glide_intrahb_reward>  (135) 
-0

>  <i_i_glide_confnum>  (135) 
2

>  <i_i_glide_posenum>  (135) 
2

>  <r_i_glide_eff_state_penalty>  (135) 
0

>  <ligand_id>  (135) 
50

>  <original_smiles>  (135) 
COc1ccc(CCNC(C)=O)c2ncccc12

>  <smiles>  (135) 
[H]c1nc2c(C([H])([H])C([H])([H])N([H])C(=O)C([H])([H])[H])c([H])c([H])c(OC([H])([H])[H])c2c([H])c1[H]

$$$$
50:1:0
     RDKit          3D

 35 36  0  0  1  0  0  0  0  0999 V2000
    8.8443   -2.6921   -0.0059 C   0  0  0  0  0  0  0  0  0  0  0  0
    7.7046   -2.6685   -0.8582 O   0  0  0  0  0  0  0  0  0  0  0  0
    6.5474   -2.0868   -0.3931 C   0  0  0  0  0  0  0  0  0  0  0  0
    6.5138   -1.2692    0.7703 C   0  0  0  0  0  0  0  0  0  0  0  0
    5.3137   -0.6669    1.1948 C   0  0  0  0  0  0  0  0  0  0  0  0
    4.1179   -0.8604    0.4737 C   0  0  0  0  0  0  0  0  0  0  0  0
    2.8617   -0.1906    0.9968 C   0  0  0  0  0  0  0  0  0  0  0  0
    2.0959   -1.0717    1.9977 C   0  0  0  0  0  0  0  0  0  0  0  0
    0.9093   -0.3882    2.5077 N   0  0  0  0  0  0  0  0  0  0  0  0
    0.3441   -0.6488    3.6969 C   0  0  0  0  0  0  0  0  0  0  0  0
   -0.9203    0.1229    4.0684 C   0  0  0  0  0  0  0  0  0  0  0  0
    0.7794   -1.4900    4.4782 O   0  0  0  0  0  0  0  0  0  0  0  0
    4.1392   -1.6585   -0.6996 C   0  0  0  0  0  0  0  0  0  0  0  0
    3.0177   -1.8714   -1.4282 N   0  0  0  0  0  0  0  0  0  0  0  0
    2.9827   -2.6378   -2.5425 C   0  0  0  0  0  0  0  0  0  0  0  0
    4.1534   -3.2482   -3.0152 C   0  0  0  0  0  0  0  0  0  0  0  0
    5.3608   -3.0600   -2.2966 C   0  0  0  0  0  0  0  0  0  0  0  0
    5.3525   -2.2640   -1.1235 C   0  0  0  0  0  0  0  0  0  0  0  0
    9.6521   -3.2158   -0.5012 H   0  0  0  0  0  0  0  0  0  0  0  0
    8.6482   -3.2496    0.9089 H   0  0  0  0  0  0  0  0  0  0  0  0
    9.2171   -1.6973    0.2474 H   0  0  0  0  0  0  0  0  0  0  0  0
    7.4009   -1.0621    1.3312 H   0  0  0  0  0  0  0  0  0  0  0  0
    5.3046   -0.0622    2.0783 H   0  0  0  0  0  0  0  0  0  0  0  0
    3.1078    0.7762    1.4332 H   0  0  0  0  0  0  0  0  0  0  0  0
    2.2228    0.0944    0.1589 H   0  0  0  0  0  0  0  0  0  0  0  0
    1.7872   -2.0097    1.5196 H   0  0  0  0  0  0  0  0  0  0  0  0
    2.7711   -1.2993    2.8293 H   0  0  0  0  0  0  0  0  0  0  0  0
    0.4565    0.2810    1.9030 H   0  0  0  0  0  0  0  0  0  0  0  0
   -1.2146    0.8215    3.2866 H   0  0  0  0  0  0  0  0  0  0  0  0
   -0.7545    0.6848    4.9877 H   0  0  0  0  0  0  0  0  0  0  0  0
   -1.7517   -0.5620    4.2433 H   0  0  0  0  0  0  0  0  0  0  0  0
    2.0113   -2.7382   -2.9961 H   0  0  0  0  0  0  0  0  0  0  0  0
    4.1193   -3.8796   -3.8803 H   0  0  0  0  0  0  0  0  0  0  0  0
    6.2623   -3.5403   -2.6392 H   0  0  0  0  0  0  0  0  0  0  0  0
    2.1187   -1.4376   -1.1330 H   0  0  0  0  0  0  0  0  0  0  0  0
  1  2  1  0
  1 19  1  0
  1 20  1  0
  1 21  1  0
  2  3  1  0
  3 18  2  0
  3  4  1  0
  4  5  2  0
  4 22  1  0
  5  6  1  0
  5 23  1  0
  6  7  1  0
  6 13  2  0
  7  8  1  0
  7 24  1  0
  7 25  1  0
  8  9  1  0
  8 26  1  0
  8 27  1  0
  9 10  1  0
  9 28  1  0
 10 11  1  0
 10 12  2  0
 11 29  1  0
 11 30  1  0
 11 31  1  0
 13 18  1  0
 13 14  1  0
 14 15  2  0
 14 35  1  0
 15 16  1  0
 15 32  1  0
 16 17  2  0
 16 33  1  0
 17 18  1  0
 17 34  1  0
M  CHG  1  14   1
M  END
>  <i_m_ct_stereo_status>  (136) 
1

>  <s_m_source_file>  (136) 
/var/tmp/pbs.5076255.sched01/tmpxs4nfypl/40fgi3imsd.sdf

>  <i_m_source_file_index>  (136) 
23

>  <i_lp_mmshare_version>  (136) 
48012

>  <i_f3d_flags>  (136) 
0

>  <s_epik_input>  (136) 
bjFbY0hdW2NIXVtjSF1jKGMxMiljKE9bQ0gzXSlbY0hdW2NIXWMyW0NIMl1bQ0gyXVtOSF1DKD1PKVtDSDNd

>  <s_epik_cmdline>  (136) 
J2VwaWtfcHl0aG9uJywgJy1waHQnLCAnMi4wJywgJy1waCcsICc3LjAnLCAnLXRuJywgJzgnLCAnLW1hJywgJzIwMCcsICctaW1hZScsICc8aW5maWxlLm1hZT4nLCAnLW9tYWUnLCAnPG91dGZpbGUubWFlPic=

>  <r_epik_Ionization_Penalty>  (136) 
1.63717

>  <r_epik_Ionization_Penalty_Charging>  (136) 
1.63717

>  <r_epik_Ionization_Penalty_Neutral>  (136) 
1.08322e-06

>  <r_epik_State_Penalty>  (136) 
1.73818

>  <r_epik_Charging_Adjusted_Penalty>  (136) 
3.37535

>  <i_epik_Tot_Q>  (136) 
1

>  <i_epik_Tot_abs_Q>  (136) 
1

>  <s_lp_Force_Field>  (136) 
OPLS3e

>  <r_lp_Energy>  (136) 
26.9453

>  <b_lp_Chiralities_Consistent>  (136) 
1

>  <s_lp_Variant>  (136) 
50:0-2

>  <s_i_glide_gridfile>  (136) 
pfpi4k_grid

>  <i_i_glide_lignum>  (136) 
23

>  <i_i_glide_rotatable_bonds>  (136) 
5

>  <r_i_docking_score>  (136) 
-4.27234

>  <r_i_glide_ligand_efficiency>  (136) 
-0.237352

>  <r_i_glide_ligand_efficiency_sa>  (136) 
-0.622039

>  <r_i_glide_ligand_efficiency_ln>  (136) 
-1.09818

>  <r_i_glide_gscore>  (136) 
-4.27234

>  <r_i_glide_lipo>  (136) 
-0.390986

>  <r_i_glide_hbond>  (136) 
-0.268534

>  <r_i_glide_metal>  (136) 
-0

>  <r_i_glide_rewards>  (136) 
-1.73661

>  <r_i_glide_evdw>  (136) 
-22.0962

>  <r_i_glide_ecoul>  (136) 
-9.91125

>  <r_i_glide_erotb>  (136) 
0.867765

>  <r_i_glide_esite>  (136) 
-0.152479

>  <r_i_glide_emodel>  (136) 
-41.4267

>  <r_i_glide_energy>  (136) 
-32.0074

>  <r_i_glide_einternal>  (136) 
0.951155

>  <r_i_glide_intrahb_reward>  (136) 
-0

>  <i_i_glide_confnum>  (136) 
4

>  <i_i_glide_posenum>  (136) 
1

>  <r_i_glide_eff_state_penalty>  (136) 
0

>  <ligand_id>  (136) 
50

>  <original_smiles>  (136) 
COc1ccc(CCNC(C)=O)c2ncccc12

>  <smiles>  (136) 
[H]c1c([H])c(C([H])([H])C([H])([H])N([H])C(=O)C([H])([H])[H])c2c(c([H])c([H])c([H])[n+]2[H])c1OC([H])([H])[H]

$$$$
50:1:1
     RDKit          3D

 35 36  0  0  1  0  0  0  0  0999 V2000
   -2.5555    3.3101    6.5713 C   0  0  0  0  0  0  0  0  0  0  0  0
   -1.4027    3.9384    6.0210 O   0  0  0  0  0  0  0  0  0  0  0  0
   -0.7339    3.3147    4.9883 C   0  0  0  0  0  0  0  0  0  0  0  0
   -1.1355    2.0698    4.4462 C   0  0  0  0  0  0  0  0  0  0  0  0
   -0.4169    1.4794    3.3924 C   0  0  0  0  0  0  0  0  0  0  0  0
    0.7294    2.1005    2.8611 C   0  0  0  0  0  0  0  0  0  0  0  0
    1.4650    1.4097    1.7177 C   0  0  0  0  0  0  0  0  0  0  0  0
    2.2000    0.1386    2.1662 C   0  0  0  0  0  0  0  0  0  0  0  0
    2.9037   -0.4962    1.0556 N   0  0  0  0  0  0  0  0  0  0  0  0
    4.2348   -0.6504    0.9598 C   0  0  0  0  0  0  0  0  0  0  0  0
    4.7705   -1.3534   -0.2833 C   0  0  0  0  0  0  0  0  0  0  0  0
    5.0247   -0.2550    1.8143 O   0  0  0  0  0  0  0  0  0  0  0  0
    1.1343    3.3513    3.3844 C   0  0  0  0  0  0  0  0  0  0  0  0
    2.2182    3.9930    2.8865 N   0  0  0  0  0  0  0  0  0  0  0  0
    2.6550    5.1874    3.3363 C   0  0  0  0  0  0  0  0  0  0  0  0
    1.9787    5.8244    4.3942 C   0  0  0  0  0  0  0  0  0  0  0  0
    0.8437    5.1993    4.9538 C   0  0  0  0  0  0  0  0  0  0  0  0
    0.4096    3.9529    4.4460 C   0  0  0  0  0  0  0  0  0  0  0  0
   -2.9651    3.9325    7.3678 H   0  0  0  0  0  0  0  0  0  0  0  0
   -2.3169    2.3406    7.0112 H   0  0  0  0  0  0  0  0  0  0  0  0
   -3.3399    3.1830    5.8237 H   0  0  0  0  0  0  0  0  0  0  0  0
   -1.9978    1.5381    4.8201 H   0  0  0  0  0  0  0  0  0  0  0  0
   -0.7459    0.5363    2.9835 H   0  0  0  0  0  0  0  0  0  0  0  0
    0.7444    1.1854    0.9262 H   0  0  0  0  0  0  0  0  0  0  0  0
    2.2031    2.0761    1.2773 H   0  0  0  0  0  0  0  0  0  0  0  0
    2.8806    0.4004    2.9778 H   0  0  0  0  0  0  0  0  0  0  0  0
    1.4856   -0.5831    2.5541 H   0  0  0  0  0  0  0  0  0  0  0  0
    2.3165   -0.8466    0.3036 H   0  0  0  0  0  0  0  0  0  0  0  0
    3.9719   -1.6655   -0.9557 H   0  0  0  0  0  0  0  0  0  0  0  0
    5.3432   -2.2350    0.0078 H   0  0  0  0  0  0  0  0  0  0  0  0
    5.4349   -0.6803   -0.8236 H   0  0  0  0  0  0  0  0  0  0  0  0
    3.5264    5.5973    2.8418 H   0  0  0  0  0  0  0  0  0  0  0  0
    2.3184    6.7826    4.7663 H   0  0  0  0  0  0  0  0  0  0  0  0
    0.3173    5.6759    5.7686 H   0  0  0  0  0  0  0  0  0  0  0  0
    2.7159    3.5615    2.1114 H   0  0  0  0  0  0  0  0  0  0  0  0
  1  2  1  0
  1 19  1  0
  1 20  1  0
  1 21  1  0
  2  3  1  0
  3 18  2  0
  3  4  1  0
  4  5  2  0
  4 22  1  0
  5  6  1  0
  5 23  1  0
  6  7  1  0
  6 13  2  0
  7  8  1  0
  7 24  1  0
  7 25  1  0
  8  9  1  0
  8 26  1  0
  8 27  1  0
  9 10  1  0
  9 28  1  0
 10 11  1  0
 10 12  2  0
 11 29  1  0
 11 30  1  0
 11 31  1  0
 13 18  1  0
 13 14  1  0
 14 15  2  0
 14 35  1  0
 15 16  1  0
 15 32  1  0
 16 17  2  0
 16 33  1  0
 17 18  1  0
 17 34  1  0
M  CHG  1  14   1
M  END
>  <i_m_ct_stereo_status>  (137) 
1

>  <s_m_source_file>  (137) 
/var/tmp/pbs.5076255.sched01/tmpxs4nfypl/40fgi3imsd.sdf

>  <i_m_source_file_index>  (137) 
23

>  <i_lp_mmshare_version>  (137) 
48012

>  <i_f3d_flags>  (137) 
0

>  <s_epik_input>  (137) 
bjFbY0hdW2NIXVtjSF1jKGMxMiljKE9bQ0gzXSlbY0hdW2NIXWMyW0NIMl1bQ0gyXVtOSF1DKD1PKVtDSDNd

>  <s_epik_cmdline>  (137) 
J2VwaWtfcHl0aG9uJywgJy1waHQnLCAnMi4wJywgJy1waCcsICc3LjAnLCAnLXRuJywgJzgnLCAnLW1hJywgJzIwMCcsICctaW1hZScsICc8aW5maWxlLm1hZT4nLCAnLW9tYWUnLCAnPG91dGZpbGUubWFlPic=

>  <r_epik_Ionization_Penalty>  (137) 
1.63717

>  <r_epik_Ionization_Penalty_Charging>  (137) 
1.63717

>  <r_epik_Ionization_Penalty_Neutral>  (137) 
1.08322e-06

>  <r_epik_State_Penalty>  (137) 
1.73818

>  <r_epik_Charging_Adjusted_Penalty>  (137) 
3.37535

>  <i_epik_Tot_Q>  (137) 
1

>  <i_epik_Tot_abs_Q>  (137) 
1

>  <s_lp_Force_Field>  (137) 
OPLS3e

>  <r_lp_Energy>  (137) 
26.9453

>  <b_lp_Chiralities_Consistent>  (137) 
1

>  <s_lp_Variant>  (137) 
50:0-2

>  <s_i_glide_gridfile>  (137) 
pfpi4k_grid

>  <i_i_glide_lignum>  (137) 
23

>  <i_i_glide_rotatable_bonds>  (137) 
5

>  <r_i_docking_score>  (137) 
-3.20025

>  <r_i_glide_ligand_efficiency>  (137) 
-0.177792

>  <r_i_glide_ligand_efficiency_sa>  (137) 
-0.465946

>  <r_i_glide_ligand_efficiency_ln>  (137) 
-0.822607

>  <r_i_glide_gscore>  (137) 
-3.20025

>  <r_i_glide_lipo>  (137) 
-0.120821

>  <r_i_glide_hbond>  (137) 
-0.264857

>  <r_i_glide_metal>  (137) 
-0

>  <r_i_glide_rewards>  (137) 
-1.84977

>  <r_i_glide_evdw>  (137) 
-20.9559

>  <r_i_glide_ecoul>  (137) 
-4.36092

>  <r_i_glide_erotb>  (137) 
0.867765

>  <r_i_glide_esite>  (137) 
-0.130635

>  <r_i_glide_emodel>  (137) 
-32.3568

>  <r_i_glide_energy>  (137) 
-25.3168

>  <r_i_glide_einternal>  (137) 
0.885511

>  <r_i_glide_intrahb_reward>  (137) 
-0

>  <i_i_glide_confnum>  (137) 
4

>  <i_i_glide_posenum>  (137) 
16

>  <r_i_glide_eff_state_penalty>  (137) 
0

>  <ligand_id>  (137) 
50

>  <original_smiles>  (137) 
COc1ccc(CCNC(C)=O)c2ncccc12

>  <smiles>  (137) 
[H]c1c([H])c(C([H])([H])C([H])([H])N([H])C(=O)C([H])([H])[H])c2c(c([H])c([H])c([H])[n+]2[H])c1OC([H])([H])[H]

$$$$
50:1:2
     RDKit          3D

 35 36  0  0  1  0  0  0  0  0999 V2000
   -2.6244    2.9693    7.8996 C   0  0  0  0  0  0  0  0  0  0  0  0
   -1.6615    3.6782    7.1257 O   0  0  0  0  0  0  0  0  0  0  0  0
   -1.1691    3.1000    5.9731 C   0  0  0  0  0  0  0  0  0  0  0  0
   -1.5562    1.8134    5.5276 C   0  0  0  0  0  0  0  0  0  0  0  0
   -1.0390    1.2738    4.3331 C   0  0  0  0  0  0  0  0  0  0  0  0
   -0.1098    1.9986    3.5583 C   0  0  0  0  0  0  0  0  0  0  0  0
    0.4350    1.3722    2.2760 C   0  0  0  0  0  0  0  0  0  0  0  0
    1.8237    0.7406    2.4784 C   0  0  0  0  0  0  0  0  0  0  0  0
    2.2942    0.0561    1.2785 N   0  0  0  0  0  0  0  0  0  0  0  0
    3.5528   -0.3786    1.1129 C   0  0  0  0  0  0  0  0  0  0  0  0
    3.8849   -1.0556   -0.2133 C   0  0  0  0  0  0  0  0  0  0  0  0
    4.4301   -0.2541    1.9652 O   0  0  0  0  0  0  0  0  0  0  0  0
    0.2952    3.2793    3.9989 C   0  0  0  0  0  0  0  0  0  0  0  0
    1.1805    4.0032    3.2862 N   0  0  0  0  0  0  0  0  0  0  0  0
    1.6074    5.2334    3.6368 C   0  0  0  0  0  0  0  0  0  0  0  0
    1.1207    5.8261    4.8205 C   0  0  0  0  0  0  0  0  0  0  0  0
    0.1926    5.1125    5.6118 C   0  0  0  0  0  0  0  0  0  0  0  0
   -0.2307    3.8287    5.2026 C   0  0  0  0  0  0  0  0  0  0  0  0
   -2.9032    3.5653    8.7696 H   0  0  0  0  0  0  0  0  0  0  0  0
   -2.2328    2.0218    8.2729 H   0  0  0  0  0  0  0  0  0  0  0  0
   -3.5349    2.7819    7.3292 H   0  0  0  0  0  0  0  0  0  0  0  0
   -2.2498    1.2117    6.0897 H   0  0  0  0  0  0  0  0  0  0  0  0
   -1.3557    0.2931    4.0142 H   0  0  0  0  0  0  0  0  0  0  0  0
   -0.2675    0.6177    1.9220 H   0  0  0  0  0  0  0  0  0  0  0  0
    0.4707    2.1219    1.4838 H   0  0  0  0  0  0  0  0  0  0  0  0
    2.5398    1.5159    2.7574 H   0  0  0  0  0  0  0  0  0  0  0  0
    1.7879    0.0186    3.2957 H   0  0  0  0  0  0  0  0  0  0  0  0
    1.6201   -0.1630    0.5463 H   0  0  0  0  0  0  0  0  0  0  0  0
    3.0156   -1.1138   -0.8706 H   0  0  0  0  0  0  0  0  0  0  0  0
    4.2526   -2.0668   -0.0453 H   0  0  0  0  0  0  0  0  0  0  0  0
    4.6579   -0.4920   -0.7337 H   0  0  0  0  0  0  0  0  0  0  0  0
    2.2969    5.7145    2.9576 H   0  0  0  0  0  0  0  0  0  0  0  0
    1.4440    6.8169    5.1065 H   0  0  0  0  0  0  0  0  0  0  0  0
   -0.1860    5.5533    6.5239 H   0  0  0  0  0  0  0  0  0  0  0  0
    1.4877    3.6327    2.3801 H   0  0  0  0  0  0  0  0  0  0  0  0
  1  2  1  0
  1 19  1  0
  1 20  1  0
  1 21  1  0
  2  3  1  0
  3 18  2  0
  3  4  1  0
  4  5  2  0
  4 22  1  0
  5  6  1  0
  5 23  1  0
  6  7  1  0
  6 13  2  0
  7  8  1  0
  7 24  1  0
  7 25  1  0
  8  9  1  0
  8 26  1  0
  8 27  1  0
  9 10  1  0
  9 28  1  0
 10 11  1  0
 10 12  2  0
 11 29  1  0
 11 30  1  0
 11 31  1  0
 13 18  1  0
 13 14  1  0
 14 15  2  0
 14 35  1  0
 15 16  1  0
 15 32  1  0
 16 17  2  0
 16 33  1  0
 17 18  1  0
 17 34  1  0
M  CHG  1  14   1
M  END
>  <i_m_ct_stereo_status>  (138) 
1

>  <s_m_source_file>  (138) 
/var/tmp/pbs.5076255.sched01/tmpxs4nfypl/40fgi3imsd.sdf

>  <i_m_source_file_index>  (138) 
23

>  <i_lp_mmshare_version>  (138) 
48012

>  <i_f3d_flags>  (138) 
0

>  <s_epik_input>  (138) 
bjFbY0hdW2NIXVtjSF1jKGMxMiljKE9bQ0gzXSlbY0hdW2NIXWMyW0NIMl1bQ0gyXVtOSF1DKD1PKVtDSDNd

>  <s_epik_cmdline>  (138) 
J2VwaWtfcHl0aG9uJywgJy1waHQnLCAnMi4wJywgJy1waCcsICc3LjAnLCAnLXRuJywgJzgnLCAnLW1hJywgJzIwMCcsICctaW1hZScsICc8aW5maWxlLm1hZT4nLCAnLW9tYWUnLCAnPG91dGZpbGUubWFlPic=

>  <r_epik_Ionization_Penalty>  (138) 
1.63717

>  <r_epik_Ionization_Penalty_Charging>  (138) 
1.63717

>  <r_epik_Ionization_Penalty_Neutral>  (138) 
1.08322e-06

>  <r_epik_State_Penalty>  (138) 
1.73818

>  <r_epik_Charging_Adjusted_Penalty>  (138) 
3.37535

>  <i_epik_Tot_Q>  (138) 
1

>  <i_epik_Tot_abs_Q>  (138) 
1

>  <s_lp_Force_Field>  (138) 
OPLS3e

>  <r_lp_Energy>  (138) 
26.9453

>  <b_lp_Chiralities_Consistent>  (138) 
1

>  <s_lp_Variant>  (138) 
50:0-2

>  <s_i_glide_gridfile>  (138) 
pfpi4k_grid

>  <i_i_glide_lignum>  (138) 
23

>  <i_i_glide_rotatable_bonds>  (138) 
5

>  <r_i_docking_score>  (138) 
-2.99269

>  <r_i_glide_ligand_efficiency>  (138) 
-0.16626

>  <r_i_glide_ligand_efficiency_sa>  (138) 
-0.435726

>  <r_i_glide_ligand_efficiency_ln>  (138) 
-0.769255

>  <r_i_glide_gscore>  (138) 
-2.99269

>  <r_i_glide_lipo>  (138) 
-0.111358

>  <r_i_glide_hbond>  (138) 
-0.179158

>  <r_i_glide_metal>  (138) 
-0

>  <r_i_glide_rewards>  (138) 
-1.73661

>  <r_i_glide_evdw>  (138) 
-19.7292

>  <r_i_glide_ecoul>  (138) 
-4.49638

>  <r_i_glide_erotb>  (138) 
0.867765

>  <r_i_glide_esite>  (138) 
-0.172407

>  <r_i_glide_emodel>  (138) 
-30.8372

>  <r_i_glide_energy>  (138) 
-24.2256

>  <r_i_glide_einternal>  (138) 
0.660399

>  <r_i_glide_intrahb_reward>  (138) 
-0

>  <i_i_glide_confnum>  (138) 
4

>  <i_i_glide_posenum>  (138) 
35

>  <r_i_glide_eff_state_penalty>  (138) 
0

>  <ligand_id>  (138) 
50

>  <original_smiles>  (138) 
COc1ccc(CCNC(C)=O)c2ncccc12

>  <smiles>  (138) 
[H]c1c([H])c(C([H])([H])C([H])([H])N([H])C(=O)C([H])([H])[H])c2c(c([H])c([H])c([H])[n+]2[H])c1OC([H])([H])[H]

$$$$
51:0:0
     RDKit          3D

 34 37  0  0  1  0  0  0  0  0999 V2000
    3.7360   -0.9918   -3.2013 C   0  0  0  0  0  0  0  0  0  0  0  0
    3.9405   -2.0151   -2.0684 C   0  0  2  0  0  0  0  0  0  0  0  0
    2.7288   -3.0306   -1.9997 C   0  0  0  0  0  0  0  0  0  0  0  0
    2.6008   -3.9268   -0.7231 C   0  0  0  0  0  0  0  0  0  0  0  0
    2.8176   -3.0384    0.4787 C   0  0  1  0  0  0  0  0  0  0  0  0
    3.3905   -3.2535    1.9205 C   0  0  1  0  0  0  0  0  0  0  0  0
    4.5708   -4.1712    2.3270 C   0  0  0  0  0  0  0  0  0  0  0  0
    6.0023   -3.5753    2.0430 C   0  0  0  0  0  0  0  0  0  0  0  0
    6.2426   -3.0073    0.6159 C   0  0  2  0  0  0  0  0  0  0  0  0
    7.3360   -3.7444   -0.1552 C   0  0  0  0  0  0  0  0  0  0  0  0
    6.4442   -1.5883    0.5368 O   0  0  0  0  0  0  0  0  0  0  0  0
    5.7749   -1.0696   -0.7677 O   0  0  0  0  0  0  0  0  0  0  0  0
    4.3480   -1.3285   -0.7200 C   0  0  2  0  0  0  0  0  0  0  0  0
    4.1023   -2.3384    0.3428 C   0  0  1  0  0  0  0  0  0  0  0  0
    4.0050   -1.9677    1.7520 O   0  0  0  0  0  0  0  0  0  0  0  0
    5.0545   -3.3288    0.0054 O   0  0  0  0  0  0  0  0  0  0  0  0
    2.8772   -0.3430   -3.0040 H   0  0  0  0  0  0  0  0  0  0  0  0
    3.5631   -1.4932   -4.1573 H   0  0  0  0  0  0  0  0  0  0  0  0
    4.6104   -0.3512   -3.3125 H   0  0  0  0  0  0  0  0  0  0  0  0
    4.7930   -2.6229   -2.3713 H   0  0  0  0  0  0  0  0  0  0  0  0
    1.8125   -2.4518   -2.0991 H   0  0  0  0  0  0  0  0  0  0  0  0
    2.7470   -3.6754   -2.8781 H   0  0  0  0  0  0  0  0  0  0  0  0
    1.6226   -4.3995   -0.7000 H   0  0  0  0  0  0  0  0  0  0  0  0
    3.3147   -4.7415   -0.7211 H   0  0  0  0  0  0  0  0  0  0  0  0
    2.0196   -2.3089    0.5734 H   0  0  0  0  0  0  0  0  0  0  0  0
    2.5784   -3.2276    2.6495 H   0  0  0  0  0  0  0  0  0  0  0  0
    4.5120   -4.4067    3.3874 H   0  0  0  0  0  0  0  0  0  0  0  0
    4.4793   -5.1309    1.8113 H   0  0  0  0  0  0  0  0  0  0  0  0
    6.1941   -2.7679    2.7592 H   0  0  0  0  0  0  0  0  0  0  0  0
    6.7464   -4.3503    2.2626 H   0  0  0  0  0  0  0  0  0  0  0  0
    7.3601   -3.4360   -1.2016 H   0  0  0  0  0  0  0  0  0  0  0  0
    7.1367   -4.8169   -0.1427 H   0  0  0  0  0  0  0  0  0  0  0  0
    8.3285   -3.5847    0.2724 H   0  0  0  0  0  0  0  0  0  0  0  0
    3.7892   -0.4198   -0.5346 H   0  0  0  0  0  0  0  0  0  0  0  0
  1  2  1  0
  1 17  1  0
  1 18  1  0
  1 19  1  0
  2 13  1  0
  2  3  1  0
  2 20  1  6
  3  4  1  0
  3 21  1  0
  3 22  1  0
  4  5  1  0
  4 23  1  0
  4 24  1  0
  5 14  1  0
  5  6  1  0
  5 25  1  1
  6 15  1  0
  6  7  1  0
  6 26  1  1
  7  8  1  0
  7 27  1  0
  7 28  1  0
  8  9  1  0
  8 29  1  0
  8 30  1  0
  9 16  1  0
  9 10  1  6
  9 11  1  0
 10 31  1  0
 10 32  1  0
 10 33  1  0
 11 12  1  0
 12 13  1  0
 13 14  1  0
 13 34  1  1
 14 15  1  1
 14 16  1  0
M  END
>  <i_m_ct_stereo_status>  (139) 
1

>  <s_m_source_file>  (139) 
/var/tmp/pbs.5076255.sched01/tmpxs4nfypl/40fgi3imsd.sdf

>  <i_m_source_file_index>  (139) 
24

>  <i_lp_mmshare_version>  (139) 
48012

>  <i_f3d_flags>  (139) 
0

>  <s_epik_input>  (139) 
W0NIMl0xW0NIMl1bQ0BASF0oW0NIM10pW0NAQEhdMk9PW0NAQF0oTzMpKFtDSDNdKVtDSDJdW0NIMl1bQ0BASF0oTzQpW0NASF0xW0NAXTIzNA==

>  <s_epik_cmdline>  (139) 
J2VwaWtfcHl0aG9uJywgJy1waHQnLCAnMi4wJywgJy1waCcsICc3LjAnLCAnLXRuJywgJzgnLCAnLW1hJywgJzIwMCcsICctaW1hZScsICc8aW5maWxlLm1hZT4nLCAnLW9tYWUnLCAnPG91dGZpbGUubWFlPic=

>  <r_lp_tautomer_probability>  (139) 
1

>  <r_epik_Ionization_Penalty>  (139) 
3.42051e-14

>  <r_epik_Ionization_Penalty_Charging>  (139) 
0

>  <r_epik_Ionization_Penalty_Neutral>  (139) 
3.42051e-14

>  <r_epik_State_Penalty>  (139) 
-0

>  <r_epik_Charging_Adjusted_Penalty>  (139) 
0

>  <i_epik_Tot_Q>  (139) 
0

>  <i_epik_Tot_abs_Q>  (139) 
0

>  <s_lp_Force_Field>  (139) 
OPLS3e

>  <r_lp_Energy>  (139) 
76.8011

>  <b_lp_Chiralities_Consistent>  (139) 
1

>  <s_lp_Variant>  (139) 
51:0-1

>  <s_i_glide_gridfile>  (139) 
pfpi4k_grid

>  <i_i_glide_lignum>  (139) 
24

>  <i_i_glide_rotatable_bonds>  (139) 
0

>  <r_i_docking_score>  (139) 
-3.35259

>  <r_i_glide_ligand_efficiency>  (139) 
-0.209537

>  <r_i_glide_ligand_efficiency_sa>  (139) 
-0.527999

>  <r_i_glide_ligand_efficiency_ln>  (139) 
-0.88867

>  <r_i_glide_gscore>  (139) 
-3.35259

>  <r_i_glide_lipo>  (139) 
-0.291209

>  <r_i_glide_hbond>  (139) 
-0.0377816

>  <r_i_glide_metal>  (139) 
-0

>  <r_i_glide_rewards>  (139) 
-1.9753

>  <r_i_glide_evdw>  (139) 
-17.3058

>  <r_i_glide_ecoul>  (139) 
-1.15104

>  <r_i_glide_erotb>  (139) 
0

>  <r_i_glide_esite>  (139) 
-0.0103464

>  <r_i_glide_emodel>  (139) 
-21.9828

>  <r_i_glide_energy>  (139) 
-18.4568

>  <r_i_glide_einternal>  (139) 
0

>  <r_i_glide_intrahb_reward>  (139) 
-0

>  <i_i_glide_confnum>  (139) 
1

>  <i_i_glide_posenum>  (139) 
5

>  <r_i_glide_eff_state_penalty>  (139) 
0

>  <ligand_id>  (139) 
51

>  <original_smiles>  (139) 
CC1CCC2C3CCC4(C)OOC1C2(O3)O4

>  <smiles>  (139) 
[H]C([H])([H])C12OOC3([H])C4(OC([H])(C([H])([H])C1([H])[H])C4([H])C([H])([H])C([H])([H])C3([H])C([H])([H])[H])O2

$$$$
51:0:1
     RDKit          3D

 34 37  0  0  1  0  0  0  0  0999 V2000
    3.8067    0.2530   -3.9109 C   0  0  0  0  0  0  0  0  0  0  0  0
    4.1024   -1.1097   -3.3126 C   0  0  2  0  0  0  0  0  0  0  0  0
    3.2357   -2.1855   -4.0270 C   0  0  0  0  0  0  0  0  0  0  0  0
    3.2287   -3.5930   -3.4078 C   0  0  0  0  0  0  0  0  0  0  0  0
    2.9692   -3.4483   -1.9142 C   0  0  1  0  0  0  0  0  0  0  0  0
    3.3453   -4.2504   -0.6157 C   0  0  1  0  0  0  0  0  0  0  0  0
    4.6803   -5.0138   -0.3174 C   0  0  0  0  0  0  0  0  0  0  0  0
    5.9011   -4.1130    0.1296 C   0  0  0  0  0  0  0  0  0  0  0  0
    6.1792   -2.8815   -0.7925 C   0  0  2  0  0  0  0  0  0  0  0  0
    7.5521   -2.9184   -1.4864 C   0  0  0  0  0  0  0  0  0  0  0  0
    5.9350   -1.5995   -0.1923 O   0  0  0  0  0  0  0  0  0  0  0  0
    5.3684   -0.6675   -1.2754 O   0  0  0  0  0  0  0  0  0  0  0  0
    4.0844   -1.1303   -1.7529 C   0  0  2  0  0  0  0  0  0  0  0  0
    4.0089   -2.5489   -1.3558 C   0  0  1  0  0  0  0  0  0  0  0  0
    3.5828   -2.9473   -0.0232 O   0  0  0  0  0  0  0  0  0  0  0  0
    5.2649   -3.0893   -1.8061 O   0  0  0  0  0  0  0  0  0  0  0  0
    2.7560    0.5151   -3.7278 H   0  0  0  0  0  0  0  0  0  0  0  0
    3.9695    0.2675   -4.9859 H   0  0  0  0  0  0  0  0  0  0  0  0
    4.4133    1.0283   -3.4589 H   0  0  0  0  0  0  0  0  0  0  0  0
    5.1171   -1.3790   -3.5781 H   0  0  0  0  0  0  0  0  0  0  0  0
    2.2045   -1.8361   -4.0954 H   0  0  0  0  0  0  0  0  0  0  0  0
    3.5854   -2.2775   -5.0513 H   0  0  0  0  0  0  0  0  0  0  0  0
    2.4456   -4.1762   -3.8830 H   0  0  0  0  0  0  0  0  0  0  0  0
    4.1614   -4.1306   -3.6042 H   0  0  0  0  0  0  0  0  0  0  0  0
    1.9856   -3.0156   -1.7421 H   0  0  0  0  0  0  0  0  0  0  0  0
    2.4579   -4.7279   -0.2018 H   0  0  0  0  0  0  0  0  0  0  0  0
    4.5088   -5.7504    0.4630 H   0  0  0  0  0  0  0  0  0  0  0  0
    4.9653   -5.5693   -1.2103 H   0  0  0  0  0  0  0  0  0  0  0  0
    5.7239   -3.7325    1.1356 H   0  0  0  0  0  0  0  0  0  0  0  0
    6.7982   -4.7327    0.1904 H   0  0  0  0  0  0  0  0  0  0  0  0
    7.6372   -2.1419   -2.2428 H   0  0  0  0  0  0  0  0  0  0  0  0
    7.7065   -3.8521   -2.0227 H   0  0  0  0  0  0  0  0  0  0  0  0
    8.3720   -2.8011   -0.7808 H   0  0  0  0  0  0  0  0  0  0  0  0
    3.2144   -0.6492   -1.3303 H   0  0  0  0  0  0  0  0  0  0  0  0
  1  2  1  0
  1 17  1  0
  1 18  1  0
  1 19  1  0
  2 13  1  0
  2  3  1  0
  2 20  1  1
  3  4  1  0
  3 21  1  0
  3 22  1  0
  4  5  1  0
  4 23  1  0
  4 24  1  0
  5 14  1  0
  5  6  1  0
  5 25  1  6
  6 15  1  0
  6  7  1  0
  6 26  1  1
  7  8  1  0
  7 27  1  0
  7 28  1  0
  8  9  1  0
  8 29  1  0
  8 30  1  0
  9 16  1  0
  9 10  1  6
  9 11  1  0
 10 31  1  0
 10 32  1  0
 10 33  1  0
 11 12  1  0
 12 13  1  0
 13 14  1  0
 13 34  1  1
 14 15  1  1
 14 16  1  0
M  END
>  <i_m_ct_stereo_status>  (140) 
1

>  <s_m_source_file>  (140) 
/var/tmp/pbs.5076255.sched01/tmpxs4nfypl/40fgi3imsd.sdf

>  <i_m_source_file_index>  (140) 
24

>  <i_lp_mmshare_version>  (140) 
48012

>  <i_f3d_flags>  (140) 
0

>  <s_epik_input>  (140) 
W0NIMl0xW0NIMl1bQ0BASF0oW0NIM10pW0NAQEhdMk9PW0NAQF0oTzMpKFtDSDNdKVtDSDJdW0NIMl1bQ0BASF0oTzQpW0NASF0xW0NAXTIzNA==

>  <s_epik_cmdline>  (140) 
J2VwaWtfcHl0aG9uJywgJy1waHQnLCAnMi4wJywgJy1waCcsICc3LjAnLCAnLXRuJywgJzgnLCAnLW1hJywgJzIwMCcsICctaW1hZScsICc8aW5maWxlLm1hZT4nLCAnLW9tYWUnLCAnPG91dGZpbGUubWFlPic=

>  <r_lp_tautomer_probability>  (140) 
1

>  <r_epik_Ionization_Penalty>  (140) 
3.42051e-14

>  <r_epik_Ionization_Penalty_Charging>  (140) 
0

>  <r_epik_Ionization_Penalty_Neutral>  (140) 
3.42051e-14

>  <r_epik_State_Penalty>  (140) 
-0

>  <r_epik_Charging_Adjusted_Penalty>  (140) 
0

>  <i_epik_Tot_Q>  (140) 
0

>  <i_epik_Tot_abs_Q>  (140) 
0

>  <s_lp_Force_Field>  (140) 
OPLS3e

>  <r_lp_Energy>  (140) 
76.8011

>  <b_lp_Chiralities_Consistent>  (140) 
1

>  <s_lp_Variant>  (140) 
51:0-1

>  <s_i_glide_gridfile>  (140) 
pfpi4k_grid

>  <i_i_glide_lignum>  (140) 
24

>  <i_i_glide_rotatable_bonds>  (140) 
0

>  <r_i_docking_score>  (140) 
-3.16855

>  <r_i_glide_ligand_efficiency>  (140) 
-0.198034

>  <r_i_glide_ligand_efficiency_sa>  (140) 
-0.499015

>  <r_i_glide_ligand_efficiency_ln>  (140) 
-0.839887

>  <r_i_glide_gscore>  (140) 
-3.16855

>  <r_i_glide_lipo>  (140) 
-0.452689

>  <r_i_glide_hbond>  (140) 
-0.0025111

>  <r_i_glide_metal>  (140) 
-0

>  <r_i_glide_rewards>  (140) 
-1.88026

>  <r_i_glide_evdw>  (140) 
-16.4606

>  <r_i_glide_ecoul>  (140) 
0.0949459

>  <r_i_glide_erotb>  (140) 
0

>  <r_i_glide_esite>  (140) 
-0.0243037

>  <r_i_glide_emodel>  (140) 
-19.7126

>  <r_i_glide_energy>  (140) 
-16.3657

>  <r_i_glide_einternal>  (140) 
0

>  <r_i_glide_intrahb_reward>  (140) 
-0

>  <i_i_glide_confnum>  (140) 
1

>  <i_i_glide_posenum>  (140) 
1

>  <r_i_glide_eff_state_penalty>  (140) 
0

>  <ligand_id>  (140) 
51

>  <original_smiles>  (140) 
CC1CCC2C3CCC4(C)OOC1C2(O3)O4

>  <smiles>  (140) 
[H]C([H])([H])C12OOC3([H])C4(OC([H])(C([H])([H])C1([H])[H])C4([H])C([H])([H])C([H])([H])C3([H])C([H])([H])[H])O2

$$$$
51:0:2
     RDKit          3D

 34 37  0  0  1  0  0  0  0  0999 V2000
    5.9976   -5.4465    4.5788 C   0  0  0  0  0  0  0  0  0  0  0  0
    5.1052   -4.6894    3.5739 C   0  0  2  0  0  0  0  0  0  0  0  0
    3.5761   -4.9454    3.9037 C   0  0  0  0  0  0  0  0  0  0  0  0
    2.5185   -4.4956    2.8411 C   0  0  0  0  0  0  0  0  0  0  0  0
    3.0269   -4.9929    1.5043 C   0  0  1  0  0  0  0  0  0  0  0  0
    2.8918   -4.5179    0.0176 C   0  0  1  0  0  0  0  0  0  0  0  0
    2.8870   -3.0538   -0.5077 C   0  0  0  0  0  0  0  0  0  0  0  0
    4.2960   -2.3595   -0.6192 C   0  0  0  0  0  0  0  0  0  0  0  0
    5.1889   -2.4698    0.6460 C   0  0  2  0  0  0  0  0  0  0  0  0
    5.5198   -1.1134    1.2814 C   0  0  0  0  0  0  0  0  0  0  0  0
    6.3642   -3.2697    0.4564 O   0  0  0  0  0  0  0  0  0  0  0  0
    6.6473   -4.0464    1.7724 O   0  0  0  0  0  0  0  0  0  0  0  0
    5.5404   -4.9315    2.0880 C   0  0  2  0  0  0  0  0  0  0  0  0
    4.3897   -4.4969    1.2620 C   0  0  1  0  0  0  0  0  0  0  0  0
    4.2645   -4.9077   -0.1265 O   0  0  0  0  0  0  0  0  0  0  0  0
    4.3513   -3.1125    1.5349 O   0  0  0  0  0  0  0  0  0  0  0  0
    5.8871   -6.5285    4.4809 H   0  0  0  0  0  0  0  0  0  0  0  0
    5.7494   -5.1751    5.6103 H   0  0  0  0  0  0  0  0  0  0  0  0
    7.0504   -5.2084    4.4289 H   0  0  0  0  0  0  0  0  0  0  0  0
    5.2722   -3.6295    3.7810 H   0  0  0  0  0  0  0  0  0  0  0  0
    3.4376   -6.0137    4.0857 H   0  0  0  0  0  0  0  0  0  0  0  0
    3.3298   -4.4481    4.8426 H   0  0  0  0  0  0  0  0  0  0  0  0
    1.5413   -4.9216    3.0648 H   0  0  0  0  0  0  0  0  0  0  0  0
    2.3856   -3.4208    2.8423 H   0  0  0  0  0  0  0  0  0  0  0  0
    3.0302   -6.0752    1.4705 H   0  0  0  0  0  0  0  0  0  0  0  0
    2.2165   -5.1764   -0.5147 H   0  0  0  0  0  0  0  0  0  0  0  0
    2.4063   -3.0148   -1.4819 H   0  0  0  0  0  0  0  0  0  0  0  0
    2.2557   -2.4553    0.1467 H   0  0  0  0  0  0  0  0  0  0  0  0
    4.8354   -2.7947   -1.4674 H   0  0  0  0  0  0  0  0  0  0  0  0
    4.1439   -1.3060   -0.8875 H   0  0  0  0  0  0  0  0  0  0  0  0
    6.0225   -1.2414    2.2393 H   0  0  0  0  0  0  0  0  0  0  0  0
    4.6059   -0.5455    1.4759 H   0  0  0  0  0  0  0  0  0  0  0  0
    6.1610   -0.5005    0.6421 H   0  0  0  0  0  0  0  0  0  0  0  0
    5.8014   -5.9724    1.9239 H   0  0  0  0  0  0  0  0  0  0  0  0
  1  2  1  0
  1 17  1  0
  1 18  1  0
  1 19  1  0
  2 13  1  0
  2  3  1  0
  2 20  1  1
  3  4  1  0
  3 21  1  0
  3 22  1  0
  4  5  1  0
  4 23  1  0
  4 24  1  0
  5 14  1  0
  5  6  1  0
  5 25  1  6
  6 15  1  0
  6  7  1  0
  6 26  1  6
  7  8  1  0
  7 27  1  0
  7 28  1  0
  8  9  1  0
  8 29  1  0
  8 30  1  0
  9 16  1  0
  9 10  1  1
  9 11  1  0
 10 31  1  0
 10 32  1  0
 10 33  1  0
 11 12  1  0
 12 13  1  0
 13 14  1  0
 13 34  1  1
 14 15  1  6
 14 16  1  0
M  END
>  <i_m_ct_stereo_status>  (141) 
1

>  <s_m_source_file>  (141) 
/var/tmp/pbs.5076255.sched01/tmpxs4nfypl/40fgi3imsd.sdf

>  <i_m_source_file_index>  (141) 
24

>  <i_lp_mmshare_version>  (141) 
48012

>  <i_f3d_flags>  (141) 
0

>  <s_epik_input>  (141) 
W0NIMl0xW0NIMl1bQ0BASF0oW0NIM10pW0NAQEhdMk9PW0NAQF0oTzMpKFtDSDNdKVtDSDJdW0NIMl1bQ0BASF0oTzQpW0NASF0xW0NAXTIzNA==

>  <s_epik_cmdline>  (141) 
J2VwaWtfcHl0aG9uJywgJy1waHQnLCAnMi4wJywgJy1waCcsICc3LjAnLCAnLXRuJywgJzgnLCAnLW1hJywgJzIwMCcsICctaW1hZScsICc8aW5maWxlLm1hZT4nLCAnLW9tYWUnLCAnPG91dGZpbGUubWFlPic=

>  <r_lp_tautomer_probability>  (141) 
1

>  <r_epik_Ionization_Penalty>  (141) 
3.42051e-14

>  <r_epik_Ionization_Penalty_Charging>  (141) 
0

>  <r_epik_Ionization_Penalty_Neutral>  (141) 
3.42051e-14

>  <r_epik_State_Penalty>  (141) 
-0

>  <r_epik_Charging_Adjusted_Penalty>  (141) 
0

>  <i_epik_Tot_Q>  (141) 
0

>  <i_epik_Tot_abs_Q>  (141) 
0

>  <s_lp_Force_Field>  (141) 
OPLS3e

>  <r_lp_Energy>  (141) 
76.8011

>  <b_lp_Chiralities_Consistent>  (141) 
1

>  <s_lp_Variant>  (141) 
51:0-1

>  <s_i_glide_gridfile>  (141) 
pfpi4k_grid

>  <i_i_glide_lignum>  (141) 
24

>  <i_i_glide_rotatable_bonds>  (141) 
0

>  <r_i_docking_score>  (141) 
-2.7826

>  <r_i_glide_ligand_efficiency>  (141) 
-0.173913

>  <r_i_glide_ligand_efficiency_sa>  (141) 
-0.438233

>  <r_i_glide_ligand_efficiency_ln>  (141) 
-0.737585

>  <r_i_glide_gscore>  (141) 
-2.7826

>  <r_i_glide_lipo>  (141) 
-0.165068

>  <r_i_glide_hbond>  (141) 
0

>  <r_i_glide_metal>  (141) 
-0

>  <r_i_glide_rewards>  (141) 
-1.94365

>  <r_i_glide_evdw>  (141) 
-13.0434

>  <r_i_glide_ecoul>  (141) 
-0.144762

>  <r_i_glide_erotb>  (141) 
0

>  <r_i_glide_esite>  (141) 
0

>  <r_i_glide_emodel>  (141) 
-16.0717

>  <r_i_glide_energy>  (141) 
-13.1881

>  <r_i_glide_einternal>  (141) 
0

>  <r_i_glide_intrahb_reward>  (141) 
-0

>  <i_i_glide_confnum>  (141) 
1

>  <i_i_glide_posenum>  (141) 
4

>  <r_i_glide_eff_state_penalty>  (141) 
0

>  <ligand_id>  (141) 
51

>  <original_smiles>  (141) 
CC1CCC2C3CCC4(C)OOC1C2(O3)O4

>  <smiles>  (141) 
[H]C([H])([H])C12OOC3([H])C4(OC([H])(C([H])([H])C1([H])[H])C4([H])C([H])([H])C([H])([H])C3([H])C([H])([H])[H])O2

$$$$
52:0:0
     RDKit          3D

 32 33  0  0  1  0  0  0  0  0999 V2000
    5.6737   -4.8290    0.6221 C   0  0  0  0  0  0  0  0  0  0  0  0
    5.4265   -3.3210    0.8474 C   0  0  0  0  0  0  0  0  0  0  0  0
    5.0458   -2.4822   -0.4150 C   0  0  0  0  0  0  0  0  0  0  0  0
    4.8368   -0.9597   -0.1189 C   0  0  0  0  0  0  0  0  0  0  0  0
    4.2454   -0.6278    1.2238 C   0  0  0  0  0  0  0  0  0  0  0  0
    2.9443   -0.3240    1.5521 C   0  0  0  0  0  0  0  0  0  0  0  0
    2.9288   -0.0953    2.9260 N   0  0  0  0  0  0  0  0  0  0  0  0
    1.7897    0.2587    3.7467 C   0  0  0  0  0  0  0  0  0  0  0  0
    4.1916   -0.2573    3.3332 C   0  0  0  0  0  0  0  0  0  0  0  0
    5.0430   -0.5673    2.3661 N   0  0  0  0  0  0  0  0  0  0  0  0
    6.1654   -2.6083   -1.4752 C   0  0  0  0  0  0  0  0  0  0  0  0
    7.3066   -2.2539   -1.1644 O   0  0  0  0  0  0  0  0  0  0  0  0
    5.9323   -3.0570   -2.7128 N   0  0  0  0  0  0  0  0  0  0  0  0
    4.7393   -3.4678   -3.1727 C   0  0  0  0  0  0  0  0  0  0  0  0
    4.6113   -3.8669   -4.3196 O   0  0  0  0  0  0  0  0  0  0  0  0
    3.6969   -3.4399   -2.3257 N   0  0  0  0  0  0  0  0  0  0  0  0
    3.7478   -3.0379   -1.0430 C   0  0  0  0  0  0  0  0  0  0  0  0
    2.7430   -3.1232   -0.3385 O   0  0  0  0  0  0  0  0  0  0  0  0
    5.9247   -5.3110    1.5660 H   0  0  0  0  0  0  0  0  0  0  0  0
    6.5036   -5.0220   -0.0587 H   0  0  0  0  0  0  0  0  0  0  0  0
    4.7946   -5.3423    0.2264 H   0  0  0  0  0  0  0  0  0  0  0  0
    4.6393   -3.2354    1.5935 H   0  0  0  0  0  0  0  0  0  0  0  0
    6.3202   -2.8912    1.2971 H   0  0  0  0  0  0  0  0  0  0  0  0
    5.7802   -0.4198   -0.1938 H   0  0  0  0  0  0  0  0  0  0  0  0
    4.2173   -0.5138   -0.9005 H   0  0  0  0  0  0  0  0  0  0  0  0
    2.0464   -0.2606    0.9429 H   0  0  0  0  0  0  0  0  0  0  0  0
    1.8494   -0.2584    4.7044 H   0  0  0  0  0  0  0  0  0  0  0  0
    0.8652   -0.0294    3.2490 H   0  0  0  0  0  0  0  0  0  0  0  0
    1.7813    1.3350    3.9250 H   0  0  0  0  0  0  0  0  0  0  0  0
    4.5066   -0.1491    4.3609 H   0  0  0  0  0  0  0  0  0  0  0  0
    6.7288   -3.1078   -3.3437 H   0  0  0  0  0  0  0  0  0  0  0  0
    2.8187   -3.8076   -2.6562 H   0  0  0  0  0  0  0  0  0  0  0  0
  1  2  1  0
  1 19  1  0
  1 20  1  0
  1 21  1  0
  2  3  1  0
  2 22  1  0
  2 23  1  0
  3 17  1  0
  3  4  1  0
  3 11  1  0
  4  5  1  0
  4 24  1  0
  4 25  1  0
  5 10  1  0
  5  6  2  0
  6  7  1  0
  6 26  1  0
  7  8  1  0
  7  9  1  0
  8 27  1  0
  8 28  1  0
  8 29  1  0
  9 10  2  0
  9 30  1  0
 11 12  2  0
 11 13  1  0
 13 14  1  0
 13 31  1  0
 14 15  2  0
 14 16  1  0
 16 17  1  0
 16 32  1  0
 17 18  2  0
M  END
>  <i_m_ct_stereo_status>  (142) 
1

>  <s_m_source_file>  (142) 
/var/tmp/pbs.5076255.sched01/tmpxs4nfypl/40fgi3imsd.sdf

>  <i_m_source_file_index>  (142) 
25

>  <i_lp_mmshare_version>  (142) 
48012

>  <i_f3d_flags>  (142) 
0

>  <s_epik_input>  (142) 
Tz1DMVtOSF1DKD1PKVtOSF1DKD1PKUMxKFtDSDJdW0NIM10pW0NIMl1jMltjSF1uKFtDSDNdKVtjSF1uMg==

>  <s_epik_cmdline>  (142) 
J2VwaWtfcHl0aG9uJywgJy1waHQnLCAnMi4wJywgJy1waCcsICc3LjAnLCAnLXRuJywgJzgnLCAnLW1hJywgJzIwMCcsICctaW1hZScsICc8aW5maWxlLm1hZT4nLCAnLW9tYWUnLCAnPG91dGZpbGUubWFlPic=

>  <r_lp_tautomer_probability>  (142) 
1

>  <r_epik_Ionization_Penalty>  (142) 
0.336795

>  <r_epik_Ionization_Penalty_Charging>  (142) 
0.222622

>  <r_epik_Ionization_Penalty_Neutral>  (142) 
0.114173

>  <r_epik_State_Penalty>  (142) 
0.450877

>  <r_epik_Charging_Adjusted_Penalty>  (142) 
0.673499

>  <i_epik_Tot_Q>  (142) 
0

>  <i_epik_Tot_abs_Q>  (142) 
0

>  <s_lp_Force_Field>  (142) 
OPLS3e

>  <r_lp_Energy>  (142) 
11.9583

>  <b_lp_Chiralities_Consistent>  (142) 
1

>  <s_lp_Variant>  (142) 
52:0-1

>  <s_i_glide_gridfile>  (142) 
pfpi4k_grid

>  <i_i_glide_lignum>  (142) 
25

>  <i_i_glide_rotatable_bonds>  (142) 
3

>  <r_i_docking_score>  (142) 
-4.78072

>  <r_i_glide_ligand_efficiency>  (142) 
-0.265596

>  <r_i_glide_ligand_efficiency_sa>  (142) 
-0.696058

>  <r_i_glide_ligand_efficiency_ln>  (142) 
-1.22886

>  <r_i_glide_gscore>  (142) 
-4.78072

>  <r_i_glide_lipo>  (142) 
-0.225808

>  <r_i_glide_hbond>  (142) 
-0.443397

>  <r_i_glide_metal>  (142) 
-0

>  <r_i_glide_rewards>  (142) 
-2.33738

>  <r_i_glide_evdw>  (142) 
-24.9963

>  <r_i_glide_ecoul>  (142) 
-6.84303

>  <r_i_glide_erotb>  (142) 
0.559026

>  <r_i_glide_esite>  (142) 
-0.0568963

>  <r_i_glide_emodel>  (142) 
-41.2078

>  <r_i_glide_energy>  (142) 
-31.8393

>  <r_i_glide_einternal>  (142) 
0.324513

>  <r_i_glide_intrahb_reward>  (142) 
-0

>  <i_i_glide_confnum>  (142) 
5

>  <i_i_glide_posenum>  (142) 
1

>  <r_i_glide_eff_state_penalty>  (142) 
0

>  <ligand_id>  (142) 
52

>  <original_smiles>  (142) 
CCC1(Cc2cn(C)cn2)C(=O)NC(=O)NC1=O

>  <smiles>  (142) 
[H]c1nc(C([H])([H])C2(C([H])([H])C([H])([H])[H])C(=O)N([H])C(=O)N([H])C2=O)c([H])n1C([H])([H])[H]

$$$$
52:0:1
     RDKit          3D

 32 33  0  0  1  0  0  0  0  0999 V2000
    5.6504   -4.7649    1.6827 C   0  0  0  0  0  0  0  0  0  0  0  0
    5.5245   -4.6865    0.1388 C   0  0  0  0  0  0  0  0  0  0  0  0
    4.8931   -3.3745   -0.4276 C   0  0  0  0  0  0  0  0  0  0  0  0
    4.8356   -3.4108   -1.9971 C   0  0  0  0  0  0  0  0  0  0  0  0
    4.2954   -2.1669   -2.6855 C   0  0  0  0  0  0  0  0  0  0  0  0
    3.3044   -2.0345   -3.6409 C   0  0  0  0  0  0  0  0  0  0  0  0
    3.2404   -0.6782   -3.9693 N   0  0  0  0  0  0  0  0  0  0  0  0
    2.3823   -0.0210   -4.9272 C   0  0  0  0  0  0  0  0  0  0  0  0
    4.1607   -0.0866   -3.2089 C   0  0  0  0  0  0  0  0  0  0  0  0
    4.8508   -0.9188   -2.4548 N   0  0  0  0  0  0  0  0  0  0  0  0
    3.4561   -3.2077    0.1373 C   0  0  0  0  0  0  0  0  0  0  0  0
    2.6375   -4.1122   -0.0323 O   0  0  0  0  0  0  0  0  0  0  0  0
    3.1173   -2.0993    0.8217 N   0  0  0  0  0  0  0  0  0  0  0  0
    3.9196   -1.0549    1.1083 C   0  0  0  0  0  0  0  0  0  0  0  0
    3.5017   -0.0596    1.6994 O   0  0  0  0  0  0  0  0  0  0  0  0
    5.2082   -1.1578    0.7277 N   0  0  0  0  0  0  0  0  0  0  0  0
    5.7620   -2.1763    0.0425 C   0  0  0  0  0  0  0  0  0  0  0  0
    6.9512   -2.1382   -0.2834 O   0  0  0  0  0  0  0  0  0  0  0  0
    6.1138   -5.7036    1.9890 H   0  0  0  0  0  0  0  0  0  0  0  0
    4.6808   -4.7119    2.1821 H   0  0  0  0  0  0  0  0  0  0  0  0
    6.2694   -3.9634    2.0931 H   0  0  0  0  0  0  0  0  0  0  0  0
    6.5244   -4.8138   -0.2778 H   0  0  0  0  0  0  0  0  0  0  0  0
    4.9582   -5.5541   -0.2029 H   0  0  0  0  0  0  0  0  0  0  0  0
    5.8211   -3.6492   -2.4022 H   0  0  0  0  0  0  0  0  0  0  0  0
    4.2167   -4.2557   -2.2949 H   0  0  0  0  0  0  0  0  0  0  0  0
    2.6619   -2.7724   -4.1117 H   0  0  0  0  0  0  0  0  0  0  0  0
    2.0403    0.9370   -4.5364 H   0  0  0  0  0  0  0  0  0  0  0  0
    1.5038   -0.6400   -5.1238 H   0  0  0  0  0  0  0  0  0  0  0  0
    2.9242    0.1500   -5.8627 H   0  0  0  0  0  0  0  0  0  0  0  0
    4.3447    0.9738   -3.2290 H   0  0  0  0  0  0  0  0  0  0  0  0
    2.1532   -2.0247    1.1085 H   0  0  0  0  0  0  0  0  0  0  0  0
    5.8046   -0.3656    0.9117 H   0  0  0  0  0  0  0  0  0  0  0  0
  1  2  1  0
  1 19  1  0
  1 20  1  0
  1 21  1  0
  2  3  1  0
  2 22  1  0
  2 23  1  0
  3 17  1  0
  3  4  1  0
  3 11  1  0
  4  5  1  0
  4 24  1  0
  4 25  1  0
  5 10  1  0
  5  6  2  0
  6  7  1  0
  6 26  1  0
  7  8  1  0
  7  9  1  0
  8 27  1  0
  8 28  1  0
  8 29  1  0
  9 10  2  0
  9 30  1  0
 11 12  2  0
 11 13  1  0
 13 14  1  0
 13 31  1  0
 14 15  2  0
 14 16  1  0
 16 17  1  0
 16 32  1  0
 17 18  2  0
M  END
>  <i_m_ct_stereo_status>  (143) 
1

>  <s_m_source_file>  (143) 
/var/tmp/pbs.5076255.sched01/tmpxs4nfypl/40fgi3imsd.sdf

>  <i_m_source_file_index>  (143) 
25

>  <i_lp_mmshare_version>  (143) 
48012

>  <i_f3d_flags>  (143) 
0

>  <s_epik_input>  (143) 
Tz1DMVtOSF1DKD1PKVtOSF1DKD1PKUMxKFtDSDJdW0NIM10pW0NIMl1jMltjSF1uKFtDSDNdKVtjSF1uMg==

>  <s_epik_cmdline>  (143) 
J2VwaWtfcHl0aG9uJywgJy1waHQnLCAnMi4wJywgJy1waCcsICc3LjAnLCAnLXRuJywgJzgnLCAnLW1hJywgJzIwMCcsICctaW1hZScsICc8aW5maWxlLm1hZT4nLCAnLW9tYWUnLCAnPG91dGZpbGUubWFlPic=

>  <r_lp_tautomer_probability>  (143) 
1

>  <r_epik_Ionization_Penalty>  (143) 
0.336795

>  <r_epik_Ionization_Penalty_Charging>  (143) 
0.222622

>  <r_epik_Ionization_Penalty_Neutral>  (143) 
0.114173

>  <r_epik_State_Penalty>  (143) 
0.450877

>  <r_epik_Charging_Adjusted_Penalty>  (143) 
0.673499

>  <i_epik_Tot_Q>  (143) 
0

>  <i_epik_Tot_abs_Q>  (143) 
0

>  <s_lp_Force_Field>  (143) 
OPLS3e

>  <r_lp_Energy>  (143) 
11.9583

>  <b_lp_Chiralities_Consistent>  (143) 
1

>  <s_lp_Variant>  (143) 
52:0-1

>  <s_i_glide_gridfile>  (143) 
pfpi4k_grid

>  <i_i_glide_lignum>  (143) 
25

>  <i_i_glide_rotatable_bonds>  (143) 
3

>  <r_i_docking_score>  (143) 
-4.22255

>  <r_i_glide_ligand_efficiency>  (143) 
-0.234586

>  <r_i_glide_ligand_efficiency_sa>  (143) 
-0.614789

>  <r_i_glide_ligand_efficiency_ln>  (143) 
-1.08538

>  <r_i_glide_gscore>  (143) 
-4.22255

>  <r_i_glide_lipo>  (143) 
-0.541441

>  <r_i_glide_hbond>  (143) 
-0.0842675

>  <r_i_glide_metal>  (143) 
-0

>  <r_i_glide_rewards>  (143) 
-2.20416

>  <r_i_glide_evdw>  (143) 
-26.1598

>  <r_i_glide_ecoul>  (143) 
-3.91174

>  <r_i_glide_erotb>  (143) 
0.559026

>  <r_i_glide_esite>  (143) 
-0.0569558

>  <r_i_glide_emodel>  (143) 
-35.8416

>  <r_i_glide_energy>  (143) 
-30.0715

>  <r_i_glide_einternal>  (143) 
3.41456

>  <r_i_glide_intrahb_reward>  (143) 
-0

>  <i_i_glide_confnum>  (143) 
6

>  <i_i_glide_posenum>  (143) 
14

>  <r_i_glide_eff_state_penalty>  (143) 
0

>  <ligand_id>  (143) 
52

>  <original_smiles>  (143) 
CCC1(Cc2cn(C)cn2)C(=O)NC(=O)NC1=O

>  <smiles>  (143) 
[H]c1nc(C([H])([H])C2(C([H])([H])C([H])([H])[H])C(=O)N([H])C(=O)N([H])C2=O)c([H])n1C([H])([H])[H]

$$$$
52:0:2
     RDKit          3D

 32 33  0  0  1  0  0  0  0  0999 V2000
    4.3260   -1.6093    2.0567 C   0  0  0  0  0  0  0  0  0  0  0  0
    3.3954   -2.0953    0.9271 C   0  0  0  0  0  0  0  0  0  0  0  0
    4.0621   -2.8043   -0.2986 C   0  0  0  0  0  0  0  0  0  0  0  0
    5.0428   -3.9552    0.1002 C   0  0  0  0  0  0  0  0  0  0  0  0
    4.4586   -5.0936    0.8974 C   0  0  0  0  0  0  0  0  0  0  0  0
    4.1683   -6.3759    0.4835 C   0  0  0  0  0  0  0  0  0  0  0  0
    3.6383   -7.0437    1.5856 N   0  0  0  0  0  0  0  0  0  0  0  0
    3.1758   -8.4158    1.6447 C   0  0  0  0  0  0  0  0  0  0  0  0
    3.6511   -6.1504    2.5815 C   0  0  0  0  0  0  0  0  0  0  0  0
    4.1388   -4.9651    2.2419 N   0  0  0  0  0  0  0  0  0  0  0  0
    2.9272   -3.3896   -1.1980 C   0  0  0  0  0  0  0  0  0  0  0  0
    2.1069   -4.1690   -0.7158 O   0  0  0  0  0  0  0  0  0  0  0  0
    2.8282   -3.0509   -2.4944 N   0  0  0  0  0  0  0  0  0  0  0  0
    3.6023   -2.1625   -3.1417 C   0  0  0  0  0  0  0  0  0  0  0  0
    3.4596   -1.9199   -4.3343 O   0  0  0  0  0  0  0  0  0  0  0  0
    4.5610   -1.5449   -2.4294 N   0  0  0  0  0  0  0  0  0  0  0  0
    4.8581   -1.7610   -1.1402 C   0  0  0  0  0  0  0  0  0  0  0  0
    5.8022   -1.1471   -0.6437 O   0  0  0  0  0  0  0  0  0  0  0  0
    3.7470   -1.1370    2.8477 H   0  0  0  0  0  0  0  0  0  0  0  0
    5.0553   -0.8747    1.7206 H   0  0  0  0  0  0  0  0  0  0  0  0
    4.8755   -2.4326    2.5075 H   0  0  0  0  0  0  0  0  0  0  0  0
    2.6335   -2.7351    1.3751 H   0  0  0  0  0  0  0  0  0  0  0  0
    2.8436   -1.2282    0.5612 H   0  0  0  0  0  0  0  0  0  0  0  0
    5.4854   -4.3602   -0.8148 H   0  0  0  0  0  0  0  0  0  0  0  0
    5.8902   -3.5478    0.6494 H   0  0  0  0  0  0  0  0  0  0  0  0
    4.2729   -6.8468   -0.4843 H   0  0  0  0  0  0  0  0  0  0  0  0
    3.4717   -8.8584    2.5960 H   0  0  0  0  0  0  0  0  0  0  0  0
    3.6150   -8.9997    0.8351 H   0  0  0  0  0  0  0  0  0  0  0  0
    2.0882   -8.4425    1.5617 H   0  0  0  0  0  0  0  0  0  0  0  0
    3.2974   -6.3720    3.5777 H   0  0  0  0  0  0  0  0  0  0  0  0
    2.0871   -3.5024   -3.0137 H   0  0  0  0  0  0  0  0  0  0  0  0
    5.1195   -0.8651   -2.9191 H   0  0  0  0  0  0  0  0  0  0  0  0
  1  2  1  0
  1 19  1  0
  1 20  1  0
  1 21  1  0
  2  3  1  0
  2 22  1  0
  2 23  1  0
  3 17  1  0
  3  4  1  0
  3 11  1  0
  4  5  1  0
  4 24  1  0
  4 25  1  0
  5 10  1  0
  5  6  2  0
  6  7  1  0
  6 26  1  0
  7  8  1  0
  7  9  1  0
  8 27  1  0
  8 28  1  0
  8 29  1  0
  9 10  2  0
  9 30  1  0
 11 12  2  0
 11 13  1  0
 13 14  1  0
 13 31  1  0
 14 15  2  0
 14 16  1  0
 16 17  1  0
 16 32  1  0
 17 18  2  0
M  END
>  <i_m_ct_stereo_status>  (144) 
1

>  <s_m_source_file>  (144) 
/var/tmp/pbs.5076255.sched01/tmpxs4nfypl/40fgi3imsd.sdf

>  <i_m_source_file_index>  (144) 
25

>  <i_lp_mmshare_version>  (144) 
48012

>  <i_f3d_flags>  (144) 
0

>  <s_epik_input>  (144) 
Tz1DMVtOSF1DKD1PKVtOSF1DKD1PKUMxKFtDSDJdW0NIM10pW0NIMl1jMltjSF1uKFtDSDNdKVtjSF1uMg==

>  <s_epik_cmdline>  (144) 
J2VwaWtfcHl0aG9uJywgJy1waHQnLCAnMi4wJywgJy1waCcsICc3LjAnLCAnLXRuJywgJzgnLCAnLW1hJywgJzIwMCcsICctaW1hZScsICc8aW5maWxlLm1hZT4nLCAnLW9tYWUnLCAnPG91dGZpbGUubWFlPic=

>  <r_lp_tautomer_probability>  (144) 
1

>  <r_epik_Ionization_Penalty>  (144) 
0.336795

>  <r_epik_Ionization_Penalty_Charging>  (144) 
0.222622

>  <r_epik_Ionization_Penalty_Neutral>  (144) 
0.114173

>  <r_epik_State_Penalty>  (144) 
0.450877

>  <r_epik_Charging_Adjusted_Penalty>  (144) 
0.673499

>  <i_epik_Tot_Q>  (144) 
0

>  <i_epik_Tot_abs_Q>  (144) 
0

>  <s_lp_Force_Field>  (144) 
OPLS3e

>  <r_lp_Energy>  (144) 
11.9583

>  <b_lp_Chiralities_Consistent>  (144) 
1

>  <s_lp_Variant>  (144) 
52:0-1

>  <s_i_glide_gridfile>  (144) 
pfpi4k_grid

>  <i_i_glide_lignum>  (144) 
25

>  <i_i_glide_rotatable_bonds>  (144) 
3

>  <r_i_docking_score>  (144) 
-4.05071

>  <r_i_glide_ligand_efficiency>  (144) 
-0.22504

>  <r_i_glide_ligand_efficiency_sa>  (144) 
-0.589771

>  <r_i_glide_ligand_efficiency_ln>  (144) 
-1.04121

>  <r_i_glide_gscore>  (144) 
-4.05071

>  <r_i_glide_lipo>  (144) 
-0.246873

>  <r_i_glide_hbond>  (144) 
-0.351707

>  <r_i_glide_metal>  (144) 
-0

>  <r_i_glide_rewards>  (144) 
-2.03279

>  <r_i_glide_evdw>  (144) 
-24.4199

>  <r_i_glide_ecoul>  (144) 
-4.53968

>  <r_i_glide_erotb>  (144) 
0.559026

>  <r_i_glide_esite>  (144) 
-0.0764257

>  <r_i_glide_emodel>  (144) 
-35.0813

>  <r_i_glide_energy>  (144) 
-28.9596

>  <r_i_glide_einternal>  (144) 
3.80875

>  <r_i_glide_intrahb_reward>  (144) 
-0

>  <i_i_glide_confnum>  (144) 
1

>  <i_i_glide_posenum>  (144) 
26

>  <r_i_glide_eff_state_penalty>  (144) 
0

>  <ligand_id>  (144) 
52

>  <original_smiles>  (144) 
CCC1(Cc2cn(C)cn2)C(=O)NC(=O)NC1=O

>  <smiles>  (144) 
[H]c1nc(C([H])([H])C2(C([H])([H])C([H])([H])[H])C(=O)N([H])C(=O)N([H])C2=O)c([H])n1C([H])([H])[H]

$$$$
52:1:0
     RDKit          3D

 33 34  0  0  1  0  0  0  0  0999 V2000
    7.2562   -4.2292    0.9306 C   0  0  0  0  0  0  0  0  0  0  0  0
    5.8157   -3.8831    1.3545 C   0  0  0  0  0  0  0  0  0  0  0  0
    4.9518   -3.0386    0.3575 C   0  0  0  0  0  0  0  0  0  0  0  0
    4.8499   -3.7013   -1.0631 C   0  0  0  0  0  0  0  0  0  0  0  0
    4.0697   -2.9151   -2.0948 C   0  0  0  0  0  0  0  0  0  0  0  0
    4.2421   -1.6517   -2.6094 C   0  0  0  0  0  0  0  0  0  0  0  0
    3.2668   -1.4515   -3.5438 N   0  0  0  0  0  0  0  0  0  0  0  0
    3.0601   -0.2334   -4.3428 C   0  0  0  0  0  0  0  0  0  0  0  0
    2.5056   -2.5416   -3.6338 C   0  0  0  0  0  0  0  0  0  0  0  0
    2.9948   -3.4396   -2.7715 N   0  0  0  0  0  0  0  0  0  0  0  0
    3.5238   -2.9266    0.9577 C   0  0  0  0  0  0  0  0  0  0  0  0
    2.8728   -3.9577    1.1152 O   0  0  0  0  0  0  0  0  0  0  0  0
    2.9992   -1.7336    1.2919 N   0  0  0  0  0  0  0  0  0  0  0  0
    3.5932   -0.5352    1.1492 C   0  0  0  0  0  0  0  0  0  0  0  0
    3.0252    0.5081    1.4530 O   0  0  0  0  0  0  0  0  0  0  0  0
    4.8378   -0.5299    0.6425 N   0  0  0  0  0  0  0  0  0  0  0  0
    5.5381   -1.6043    0.2500 C   0  0  0  0  0  0  0  0  0  0  0  0
    6.6254   -1.4512   -0.2950 O   0  0  0  0  0  0  0  0  0  0  0  0
    7.7621   -4.7957    1.7119 H   0  0  0  0  0  0  0  0  0  0  0  0
    7.8737   -3.3497    0.7493 H   0  0  0  0  0  0  0  0  0  0  0  0
    7.2665   -4.8439    0.0343 H   0  0  0  0  0  0  0  0  0  0  0  0
    5.3097   -4.8150    1.6158 H   0  0  0  0  0  0  0  0  0  0  0  0
    5.8852   -3.3288    2.2918 H   0  0  0  0  0  0  0  0  0  0  0  0
    5.8461   -3.8530   -1.4776 H   0  0  0  0  0  0  0  0  0  0  0  0
    4.4098   -4.6965   -0.9740 H   0  0  0  0  0  0  0  0  0  0  0  0
    4.9626   -0.8767   -2.3868 H   0  0  0  0  0  0  0  0  0  0  0  0
    2.7028   -0.4723   -5.3469 H   0  0  0  0  0  0  0  0  0  0  0  0
    4.0048    0.3065   -4.4295 H   0  0  0  0  0  0  0  0  0  0  0  0
    2.3321    0.4162   -3.8533 H   0  0  0  0  0  0  0  0  0  0  0  0
    1.6594   -2.6772   -4.2824 H   0  0  0  0  0  0  0  0  0  0  0  0
    2.0579   -1.7307    1.6553 H   0  0  0  0  0  0  0  0  0  0  0  0
    5.2694    0.3681    0.4826 H   0  0  0  0  0  0  0  0  0  0  0  0
    2.6374   -4.3846   -2.6679 H   0  0  0  0  0  0  0  0  0  0  0  0
  1  2  1  0
  1 19  1  0
  1 20  1  0
  1 21  1  0
  2  3  1  0
  2 22  1  0
  2 23  1  0
  3 17  1  0
  3  4  1  0
  3 11  1  0
  4  5  1  0
  4 24  1  0
  4 25  1  0
  5 10  1  0
  5  6  2  0
  6  7  1  0
  6 26  1  0
  7  8  1  0
  7  9  1  0
  8 27  1  0
  8 28  1  0
  8 29  1  0
  9 10  2  0
  9 30  1  0
 10 33  1  0
 11 12  2  0
 11 13  1  0
 13 14  1  0
 13 31  1  0
 14 15  2  0
 14 16  1  0
 16 17  1  0
 16 32  1  0
 17 18  2  0
M  CHG  1  10   1
M  END
>  <i_m_ct_stereo_status>  (145) 
1

>  <s_m_source_file>  (145) 
/var/tmp/pbs.5076255.sched01/tmpxs4nfypl/40fgi3imsd.sdf

>  <i_m_source_file_index>  (145) 
26

>  <i_lp_mmshare_version>  (145) 
48012

>  <i_f3d_flags>  (145) 
0

>  <s_epik_input>  (145) 
Tz1DMVtOSF1DKD1PKVtOSF1DKD1PKUMxKFtDSDJdW0NIM10pW0NIMl1jMltjSF1uKFtDSDNdKVtjSF1uMg==

>  <s_epik_cmdline>  (145) 
J2VwaWtfcHl0aG9uJywgJy1waHQnLCAnMi4wJywgJy1waCcsICc3LjAnLCAnLXRuJywgJzgnLCAnLW1hJywgJzIwMCcsICctaW1hZScsICc8aW5maWxlLm1hZT4nLCAnLW9tYWUnLCAnPG91dGZpbGUubWFlPic=

>  <r_lp_tautomer_probability>  (145) 
1

>  <r_epik_Ionization_Penalty>  (145) 
0.856694

>  <r_epik_Ionization_Penalty_Charging>  (145) 
0

>  <r_epik_Ionization_Penalty_Neutral>  (145) 
0.856694

>  <r_epik_State_Penalty>  (145) 
0.895922

>  <r_epik_Charging_Adjusted_Penalty>  (145) 
0.895922

>  <i_epik_Tot_Q>  (145) 
1

>  <i_epik_Tot_abs_Q>  (145) 
1

>  <s_lp_Force_Field>  (145) 
OPLS3e

>  <r_lp_Energy>  (145) 
18.418

>  <b_lp_Chiralities_Consistent>  (145) 
1

>  <s_lp_Variant>  (145) 
52:0-2

>  <s_i_glide_gridfile>  (145) 
pfpi4k_grid

>  <i_i_glide_lignum>  (145) 
26

>  <i_i_glide_rotatable_bonds>  (145) 
3

>  <r_i_docking_score>  (145) 
-5.33695

>  <r_i_glide_ligand_efficiency>  (145) 
-0.296497

>  <r_i_glide_ligand_efficiency_sa>  (145) 
-0.777043

>  <r_i_glide_ligand_efficiency_ln>  (145) 
-1.37184

>  <r_i_glide_gscore>  (145) 
-5.33695

>  <r_i_glide_lipo>  (145) 
-0.501668

>  <r_i_glide_hbond>  (145) 
-0.218693

>  <r_i_glide_metal>  (145) 
-0

>  <r_i_glide_rewards>  (145) 
-2.41888

>  <r_i_glide_evdw>  (145) 
-25.642

>  <r_i_glide_ecoul>  (145) 
-9.333

>  <r_i_glide_erotb>  (145) 
0.555186

>  <r_i_glide_esite>  (145) 
-0.0708432

>  <r_i_glide_emodel>  (145) 
-45.3199

>  <r_i_glide_energy>  (145) 
-34.975

>  <r_i_glide_einternal>  (145) 
4.17337

>  <r_i_glide_intrahb_reward>  (145) 
-0

>  <i_i_glide_confnum>  (145) 
5

>  <i_i_glide_posenum>  (145) 
40

>  <r_i_glide_eff_state_penalty>  (145) 
0

>  <ligand_id>  (145) 
52

>  <original_smiles>  (145) 
CCC1(Cc2cn(C)cn2)C(=O)NC(=O)NC1=O

>  <smiles>  (145) 
[H]c1c(C([H])([H])C2(C([H])([H])C([H])([H])[H])C(=O)N([H])C(=O)N([H])C2=O)[n+]([H])c([H])n1C([H])([H])[H]

$$$$
52:1:1
     RDKit          3D

 33 34  0  0  1  0  0  0  0  0999 V2000
    5.8141   -3.9865    2.5111 C   0  0  0  0  0  0  0  0  0  0  0  0
    5.8034   -4.2830    0.9942 C   0  0  0  0  0  0  0  0  0  0  0  0
    4.8938   -3.3502    0.1234 C   0  0  0  0  0  0  0  0  0  0  0  0
    4.7489   -3.9080   -1.3351 C   0  0  0  0  0  0  0  0  0  0  0  0
    3.9706   -3.0446   -2.2913 C   0  0  0  0  0  0  0  0  0  0  0  0
    4.2271   -1.7895   -2.8045 C   0  0  0  0  0  0  0  0  0  0  0  0
    3.2028   -1.4882   -3.6595 N   0  0  0  0  0  0  0  0  0  0  0  0
    3.0485   -0.2383   -4.4151 C   0  0  0  0  0  0  0  0  0  0  0  0
    2.3456   -2.5043   -3.7037 C   0  0  0  0  0  0  0  0  0  0  0  0
    2.8056   -3.4392   -2.8874 N   0  0  0  0  0  0  0  0  0  0  0  0
    3.4902   -3.2202    0.7561 C   0  0  0  0  0  0  0  0  0  0  0  0
    2.8240   -4.2503    0.8726 O   0  0  0  0  0  0  0  0  0  0  0  0
    3.0118   -2.0499    1.1960 N   0  0  0  0  0  0  0  0  0  0  0  0
    3.6425   -0.8629    1.0988 C   0  0  0  0  0  0  0  0  0  0  0  0
    3.1283    0.1756    1.5024 O   0  0  0  0  0  0  0  0  0  0  0  0
    4.8704   -0.8585    0.5413 N   0  0  0  0  0  0  0  0  0  0  0  0
    5.5155   -1.9398    0.0866 C   0  0  0  0  0  0  0  0  0  0  0  0
    6.6126   -1.8238   -0.4652 O   0  0  0  0  0  0  0  0  0  0  0  0
    6.4866   -4.6672    3.0291 H   0  0  0  0  0  0  0  0  0  0  0  0
    4.8393   -4.1294    2.9798 H   0  0  0  0  0  0  0  0  0  0  0  0
    6.1297   -2.9635    2.7360 H   0  0  0  0  0  0  0  0  0  0  0  0
    6.8364   -4.2069    0.6518 H   0  0  0  0  0  0  0  0  0  0  0  0
    5.5302   -5.3276    0.8442 H   0  0  0  0  0  0  0  0  0  0  0  0
    5.7348   -4.0921   -1.7736 H   0  0  0  0  0  0  0  0  0  0  0  0
    4.2687   -4.8853   -1.2740 H   0  0  0  0  0  0  0  0  0  0  0  0
    5.0289   -1.0975   -2.6235 H   0  0  0  0  0  0  0  0  0  0  0  0
    2.5941   -0.4033   -5.3988 H   0  0  0  0  0  0  0  0  0  0  0  0
    4.0303    0.2173   -4.5712 H   0  0  0  0  0  0  0  0  0  0  0  0
    2.4242    0.4736   -3.8611 H   0  0  0  0  0  0  0  0  0  0  0  0
    1.4543   -2.5579   -4.2990 H   0  0  0  0  0  0  0  0  0  0  0  0
    2.0894   -2.0488    1.6203 H   0  0  0  0  0  0  0  0  0  0  0  0
    5.3245    0.0433    0.4386 H   0  0  0  0  0  0  0  0  0  0  0  0
    2.3759   -4.3454   -2.7537 H   0  0  0  0  0  0  0  0  0  0  0  0
  1  2  1  0
  1 19  1  0
  1 20  1  0
  1 21  1  0
  2  3  1  0
  2 22  1  0
  2 23  1  0
  3 17  1  0
  3  4  1  0
  3 11  1  0
  4  5  1  0
  4 24  1  0
  4 25  1  0
  5 10  1  0
  5  6  2  0
  6  7  1  0
  6 26  1  0
  7  8  1  0
  7  9  1  0
  8 27  1  0
  8 28  1  0
  8 29  1  0
  9 10  2  0
  9 30  1  0
 10 33  1  0
 11 12  2  0
 11 13  1  0
 13 14  1  0
 13 31  1  0
 14 15  2  0
 14 16  1  0
 16 17  1  0
 16 32  1  0
 17 18  2  0
M  CHG  1  10   1
M  END
>  <i_m_ct_stereo_status>  (146) 
1

>  <s_m_source_file>  (146) 
/var/tmp/pbs.5076255.sched01/tmpxs4nfypl/40fgi3imsd.sdf

>  <i_m_source_file_index>  (146) 
26

>  <i_lp_mmshare_version>  (146) 
48012

>  <i_f3d_flags>  (146) 
0

>  <s_epik_input>  (146) 
Tz1DMVtOSF1DKD1PKVtOSF1DKD1PKUMxKFtDSDJdW0NIM10pW0NIMl1jMltjSF1uKFtDSDNdKVtjSF1uMg==

>  <s_epik_cmdline>  (146) 
J2VwaWtfcHl0aG9uJywgJy1waHQnLCAnMi4wJywgJy1waCcsICc3LjAnLCAnLXRuJywgJzgnLCAnLW1hJywgJzIwMCcsICctaW1hZScsICc8aW5maWxlLm1hZT4nLCAnLW9tYWUnLCAnPG91dGZpbGUubWFlPic=

>  <r_lp_tautomer_probability>  (146) 
1

>  <r_epik_Ionization_Penalty>  (146) 
0.856694

>  <r_epik_Ionization_Penalty_Charging>  (146) 
0

>  <r_epik_Ionization_Penalty_Neutral>  (146) 
0.856694

>  <r_epik_State_Penalty>  (146) 
0.895922

>  <r_epik_Charging_Adjusted_Penalty>  (146) 
0.895922

>  <i_epik_Tot_Q>  (146) 
1

>  <i_epik_Tot_abs_Q>  (146) 
1

>  <s_lp_Force_Field>  (146) 
OPLS3e

>  <r_lp_Energy>  (146) 
18.418

>  <b_lp_Chiralities_Consistent>  (146) 
1

>  <s_lp_Variant>  (146) 
52:0-2

>  <s_i_glide_gridfile>  (146) 
pfpi4k_grid

>  <i_i_glide_lignum>  (146) 
26

>  <i_i_glide_rotatable_bonds>  (146) 
3

>  <r_i_docking_score>  (146) 
-4.91897

>  <r_i_glide_ligand_efficiency>  (146) 
-0.273276

>  <r_i_glide_ligand_efficiency_sa>  (146) 
-0.716186

>  <r_i_glide_ligand_efficiency_ln>  (146) 
-1.2644

>  <r_i_glide_gscore>  (146) 
-4.91897

>  <r_i_glide_lipo>  (146) 
-0.412497

>  <r_i_glide_hbond>  (146) 
-0.135485

>  <r_i_glide_metal>  (146) 
-0

>  <r_i_glide_rewards>  (146) 
-2.37904

>  <r_i_glide_evdw>  (146) 
-23.8127

>  <r_i_glide_ecoul>  (146) 
-8.65943

>  <r_i_glide_erotb>  (146) 
0.555186

>  <r_i_glide_esite>  (146) 
-0.0575847

>  <r_i_glide_emodel>  (146) 
-42.8878

>  <r_i_glide_energy>  (146) 
-32.4722

>  <r_i_glide_einternal>  (146) 
1.65735

>  <r_i_glide_intrahb_reward>  (146) 
-0

>  <i_i_glide_confnum>  (146) 
5

>  <i_i_glide_posenum>  (146) 
23

>  <r_i_glide_eff_state_penalty>  (146) 
0

>  <ligand_id>  (146) 
52

>  <original_smiles>  (146) 
CCC1(Cc2cn(C)cn2)C(=O)NC(=O)NC1=O

>  <smiles>  (146) 
[H]c1c(C([H])([H])C2(C([H])([H])C([H])([H])[H])C(=O)N([H])C(=O)N([H])C2=O)[n+]([H])c([H])n1C([H])([H])[H]

$$$$
52:1:2
     RDKit          3D

 33 34  0  0  1  0  0  0  0  0999 V2000
    5.5465   -4.4809    1.5338 C   0  0  0  0  0  0  0  0  0  0  0  0
    5.3574   -4.4777   -0.0059 C   0  0  0  0  0  0  0  0  0  0  0  0
    4.7064   -3.1912   -0.6071 C   0  0  0  0  0  0  0  0  0  0  0  0
    4.5656   -3.2804   -2.1745 C   0  0  0  0  0  0  0  0  0  0  0  0
    4.0416   -2.0468   -2.8892 C   0  0  0  0  0  0  0  0  0  0  0  0
    3.0341   -1.8874   -3.8179 C   0  0  0  0  0  0  0  0  0  0  0  0
    3.0167   -0.5557   -4.1620 N   0  0  0  0  0  0  0  0  0  0  0  0
    2.1423    0.1243   -5.1123 C   0  0  0  0  0  0  0  0  0  0  0  0
    3.9536    0.0982   -3.5104 C   0  0  0  0  0  0  0  0  0  0  0  0
    4.5682   -0.7895   -2.7542 N   0  0  0  0  0  0  0  0  0  0  0  0
    3.3078   -2.9980    0.0186 C   0  0  0  0  0  0  0  0  0  0  0  0
    2.4666   -3.8737   -0.1695 O   0  0  0  0  0  0  0  0  0  0  0  0
    3.0179   -1.9170    0.7578 N   0  0  0  0  0  0  0  0  0  0  0  0
    3.8422   -0.8820    1.0013 C   0  0  0  0  0  0  0  0  0  0  0  0
    3.4711    0.1021    1.6293 O   0  0  0  0  0  0  0  0  0  0  0  0
    5.0929   -0.9605    0.5085 N   0  0  0  0  0  0  0  0  0  0  0  0
    5.5792   -1.9765   -0.2153 C   0  0  0  0  0  0  0  0  0  0  0  0
    6.7041   -1.8919   -0.7050 O   0  0  0  0  0  0  0  0  0  0  0  0
    6.0204   -5.4051    1.8626 H   0  0  0  0  0  0  0  0  0  0  0  0
    4.6004   -4.4049    2.0748 H   0  0  0  0  0  0  0  0  0  0  0  0
    6.1843   -3.6660    1.8872 H   0  0  0  0  0  0  0  0  0  0  0  0
    6.3389   -4.6224   -0.4535 H   0  0  0  0  0  0  0  0  0  0  0  0
    4.7715   -5.3551   -0.2816 H   0  0  0  0  0  0  0  0  0  0  0  0
    5.5256   -3.5592   -2.6169 H   0  0  0  0  0  0  0  0  0  0  0  0
    3.8914   -4.1008   -2.4216 H   0  0  0  0  0  0  0  0  0  0  0  0
    2.3437   -2.6001   -4.2478 H   0  0  0  0  0  0  0  0  0  0  0  0
    1.8940    1.1405   -4.7794 H   0  0  0  0  0  0  0  0  0  0  0  0
    1.2164   -0.4388   -5.1797 H   0  0  0  0  0  0  0  0  0  0  0  0
    2.6455    0.1499   -6.0830 H   0  0  0  0  0  0  0  0  0  0  0  0
    4.1960    1.1450   -3.5818 H   0  0  0  0  0  0  0  0  0  0  0  0
    2.0694   -1.8367    1.0937 H   0  0  0  0  0  0  0  0  0  0  0  0
    5.6967   -0.1666    0.6670 H   0  0  0  0  0  0  0  0  0  0  0  0
    5.3159   -0.5510   -2.1202 H   0  0  0  0  0  0  0  0  0  0  0  0
  1  2  1  0
  1 19  1  0
  1 20  1  0
  1 21  1  0
  2  3  1  0
  2 22  1  0
  2 23  1  0
  3 17  1  0
  3  4  1  0
  3 11  1  0
  4  5  1  0
  4 24  1  0
  4 25  1  0
  5 10  1  0
  5  6  2  0
  6  7  1  0
  6 26  1  0
  7  8  1  0
  7  9  1  0
  8 27  1  0
  8 28  1  0
  8 29  1  0
  9 10  2  0
  9 30  1  0
 10 33  1  0
 11 12  2  0
 11 13  1  0
 13 14  1  0
 13 31  1  0
 14 15  2  0
 14 16  1  0
 16 17  1  0
 16 32  1  0
 17 18  2  0
M  CHG  1  10   1
M  END
>  <i_m_ct_stereo_status>  (147) 
1

>  <s_m_source_file>  (147) 
/var/tmp/pbs.5076255.sched01/tmpxs4nfypl/40fgi3imsd.sdf

>  <i_m_source_file_index>  (147) 
26

>  <i_lp_mmshare_version>  (147) 
48012

>  <i_f3d_flags>  (147) 
0

>  <s_epik_input>  (147) 
Tz1DMVtOSF1DKD1PKVtOSF1DKD1PKUMxKFtDSDJdW0NIM10pW0NIMl1jMltjSF1uKFtDSDNdKVtjSF1uMg==

>  <s_epik_cmdline>  (147) 
J2VwaWtfcHl0aG9uJywgJy1waHQnLCAnMi4wJywgJy1waCcsICc3LjAnLCAnLXRuJywgJzgnLCAnLW1hJywgJzIwMCcsICctaW1hZScsICc8aW5maWxlLm1hZT4nLCAnLW9tYWUnLCAnPG91dGZpbGUubWFlPic=

>  <r_lp_tautomer_probability>  (147) 
1

>  <r_epik_Ionization_Penalty>  (147) 
0.856694

>  <r_epik_Ionization_Penalty_Charging>  (147) 
0

>  <r_epik_Ionization_Penalty_Neutral>  (147) 
0.856694

>  <r_epik_State_Penalty>  (147) 
0.895922

>  <r_epik_Charging_Adjusted_Penalty>  (147) 
0.895922

>  <i_epik_Tot_Q>  (147) 
1

>  <i_epik_Tot_abs_Q>  (147) 
1

>  <s_lp_Force_Field>  (147) 
OPLS3e

>  <r_lp_Energy>  (147) 
18.418

>  <b_lp_Chiralities_Consistent>  (147) 
1

>  <s_lp_Variant>  (147) 
52:0-2

>  <s_i_glide_gridfile>  (147) 
pfpi4k_grid

>  <i_i_glide_lignum>  (147) 
26

>  <i_i_glide_rotatable_bonds>  (147) 
3

>  <r_i_docking_score>  (147) 
-4.38567

>  <r_i_glide_ligand_efficiency>  (147) 
-0.243648

>  <r_i_glide_ligand_efficiency_sa>  (147) 
-0.638539

>  <r_i_glide_ligand_efficiency_ln>  (147) 
-1.12731

>  <r_i_glide_gscore>  (147) 
-4.38567

>  <r_i_glide_lipo>  (147) 
-0.387046

>  <r_i_glide_hbond>  (147) 
-0.16

>  <r_i_glide_metal>  (147) 
-0

>  <r_i_glide_rewards>  (147) 
-2.06465

>  <r_i_glide_evdw>  (147) 
-24.345

>  <r_i_glide_ecoul>  (147) 
-6.78865

>  <r_i_glide_erotb>  (147) 
0.555186

>  <r_i_glide_esite>  (147) 
-0.0936171

>  <r_i_glide_emodel>  (147) 
-39.8757

>  <r_i_glide_energy>  (147) 
-31.1336

>  <r_i_glide_einternal>  (147) 
2.02599

>  <r_i_glide_intrahb_reward>  (147) 
-0

>  <i_i_glide_confnum>  (147) 
2

>  <i_i_glide_posenum>  (147) 
31

>  <r_i_glide_eff_state_penalty>  (147) 
0

>  <ligand_id>  (147) 
52

>  <original_smiles>  (147) 
CCC1(Cc2cn(C)cn2)C(=O)NC(=O)NC1=O

>  <smiles>  (147) 
[H]c1c(C([H])([H])C2(C([H])([H])C([H])([H])[H])C(=O)N([H])C(=O)N([H])C2=O)[n+]([H])c([H])n1C([H])([H])[H]

$$$$
52:2:0
     RDKit          3D

 31 32  0  0  1  0  0  0  0  0999 V2000
    5.6317   -3.6862    1.1584 C   0  0  0  0  0  0  0  0  0  0  0  0
    4.5365   -3.8604    0.0579 C   0  0  0  0  0  0  0  0  0  0  0  0
    3.7984   -2.5977   -0.5680 C   0  0  1  0  0  0  0  0  0  0  0  0
    3.0577   -1.6431    0.4540 C   0  0  0  0  0  0  0  0  0  0  0  0
    3.6752   -1.3584    1.7957 C   0  0  0  0  0  0  0  0  0  0  0  0
    4.5358   -0.3472    2.1860 C   0  0  0  0  0  0  0  0  0  0  0  0
    4.9344   -0.6641    3.4889 N   0  0  0  0  0  0  0  0  0  0  0  0
    5.8238    0.1097    4.3182 C   0  0  0  0  0  0  0  0  0  0  0  0
    4.3004   -1.7768    3.8219 C   0  0  0  0  0  0  0  0  0  0  0  0
    3.4115   -2.2202    2.9147 N   0  0  0  0  0  0  0  0  0  0  0  0
    4.8377   -1.7643   -1.3862 C   0  0  0  0  0  0  0  0  0  0  0  0
    5.8003   -1.2438   -0.7920 O   0  0  0  0  0  0  0  0  0  0  0  0
    4.7290   -1.5853   -2.7102 N   0  0  0  0  0  0  0  0  0  0  0  0
    3.7595   -2.0764   -3.4599 C   0  0  0  0  0  0  0  0  0  0  0  0
    3.8238   -1.8029   -4.6652 O   0  0  0  0  0  0  0  0  0  0  0  0
    2.7834   -2.8437   -2.8985 N   0  0  0  0  0  0  0  0  0  0  0  0
    2.7095   -3.1450   -1.5573 C   0  0  0  0  0  0  0  0  0  0  0  0
    1.8297   -3.8514   -1.0862 O   0  0  0  0  0  0  0  0  0  0  0  0
    6.0383   -4.6632    1.4474 H   0  0  0  0  0  0  0  0  0  0  0  0
    5.2116   -3.3529    2.0524 H   0  0  0  0  0  0  0  0  0  0  0  0
    6.4105   -2.9715    0.8533 H   0  0  0  0  0  0  0  0  0  0  0  0
    5.0271   -4.4009   -0.8107 H   0  0  0  0  0  0  0  0  0  0  0  0
    3.7630   -4.5742    0.3998 H   0  0  0  0  0  0  0  0  0  0  0  0
    2.8897   -0.6859   -0.0434 H   0  0  0  0  0  0  0  0  0  0  0  0
    2.0645   -2.0654    0.6536 H   0  0  0  0  0  0  0  0  0  0  0  0
    4.9079    0.4692    1.6198 H   0  0  0  0  0  0  0  0  0  0  0  0
    5.9629   -0.3855    5.2811 H   0  0  0  0  0  0  0  0  0  0  0  0
    5.3298    1.0610    4.4978 H   0  0  0  0  0  0  0  0  0  0  0  0
    6.7942    0.2890    3.8463 H   0  0  0  0  0  0  0  0  0  0  0  0
    4.5192   -2.3543    4.7005 H   0  0  0  0  0  0  0  0  0  0  0  0
    5.4312   -1.0363   -3.1613 H   0  0  0  0  0  0  0  0  0  0  0  0
  1  2  1  0
  1 19  1  0
  1 20  1  0
  1 21  1  0
  3  2  1  1
  2 22  1  0
  2 23  1  0
  3 17  1  0
  3  4  1  0
  3 11  1  0
  4  5  1  0
  4 24  1  0
  4 25  1  0
  5 10  1  0
  5  6  2  0
  6  7  1  0
  6 26  1  0
  7  8  1  0
  7  9  1  0
  8 27  1  0
  8 28  1  0
  8 29  1  0
  9 10  2  0
  9 30  1  0
 11 12  2  0
 11 13  1  0
 13 14  1  0
 13 31  1  0
 14 15  2  0
 14 16  1  0
 16 17  1  0
 17 18  2  0
M  CHG  1  16  -1
M  END
>  <i_m_ct_stereo_status>  (148) 
1

>  <s_m_source_file>  (148) 
/var/tmp/pbs.5076255.sched01/tmpxs4nfypl/40fgi3imsd.sdf

>  <i_m_source_file_index>  (148) 
27

>  <i_lp_mmshare_version>  (148) 
48012

>  <i_f3d_flags>  (148) 
0

>  <s_epik_input>  (148) 
Tz1DMVtOSF1DKD1PKVtOSF1DKD1PKUMxKFtDSDJdW0NIM10pW0NIMl1jMltjSF1uKFtDSDNdKVtjSF1uMg==

>  <s_epik_cmdline>  (148) 
J2VwaWtfcHl0aG9uJywgJy1waHQnLCAnMi4wJywgJy1waCcsICc3LjAnLCAnLXRuJywgJzgnLCAnLW1hJywgJzIwMCcsICctaW1hZScsICc8aW5maWxlLm1hZT4nLCAnLW9tYWUnLCAnPG91dGZpbGUubWFlPic=

>  <r_lp_tautomer_probability>  (148) 
1

>  <r_epik_Ionization_Penalty>  (148) 
1.40179

>  <r_epik_Ionization_Penalty_Charging>  (148) 
1.40178

>  <r_epik_Ionization_Penalty_Neutral>  (148) 
3.98734e-06

>  <r_epik_State_Penalty>  (148) 
1.45573

>  <r_epik_Charging_Adjusted_Penalty>  (148) 
2.85752

>  <i_epik_Tot_Q>  (148) 
-1

>  <i_epik_Tot_abs_Q>  (148) 
1

>  <s_lp_Force_Field>  (148) 
OPLS3e

>  <r_lp_Energy>  (148) 
20.404

>  <b_lp_Chiralities_Consistent>  (148) 
1

>  <s_lp_Variant>  (148) 
52:0-3

>  <s_i_glide_gridfile>  (148) 
pfpi4k_grid

>  <i_i_glide_lignum>  (148) 
27

>  <i_i_glide_rotatable_bonds>  (148) 
3

>  <r_i_docking_score>  (148) 
-4.12417

>  <r_i_glide_ligand_efficiency>  (148) 
-0.229121

>  <r_i_glide_ligand_efficiency_sa>  (148) 
-0.600466

>  <r_i_glide_ligand_efficiency_ln>  (148) 
-1.0601

>  <r_i_glide_gscore>  (148) 
-4.12417

>  <r_i_glide_lipo>  (148) 
-0.287605

>  <r_i_glide_hbond>  (148) 
-0.371276

>  <r_i_glide_metal>  (148) 
-0

>  <r_i_glide_rewards>  (148) 
-2.19712

>  <r_i_glide_evdw>  (148) 
-19.6817

>  <r_i_glide_ecoul>  (148) 
-5.29619

>  <r_i_glide_erotb>  (148) 
0.562907

>  <r_i_glide_esite>  (148) 
-0.0525616

>  <r_i_glide_emodel>  (148) 
-30.2958

>  <r_i_glide_energy>  (148) 
-24.9779

>  <r_i_glide_einternal>  (148) 
3.51784

>  <r_i_glide_intrahb_reward>  (148) 
-0

>  <i_i_glide_confnum>  (148) 
4

>  <i_i_glide_posenum>  (148) 
4

>  <r_i_glide_eff_state_penalty>  (148) 
0

>  <ligand_id>  (148) 
52

>  <original_smiles>  (148) 
CCC1(Cc2cn(C)cn2)C(=O)NC(=O)NC1=O

>  <smiles>  (148) 
[H]c1nc(C([H])([H])C2(C([H])([H])C([H])([H])[H])C(=O)[N-]C(=O)N([H])C2=O)c([H])n1C([H])([H])[H]

$$$$
52:2:1
     RDKit          3D

 31 32  0  0  1  0  0  0  0  0999 V2000
    3.5406   -1.9021    1.8149 C   0  0  0  0  0  0  0  0  0  0  0  0
    3.3693   -2.1361    0.3051 C   0  0  0  0  0  0  0  0  0  0  0  0
    4.1046   -3.3750   -0.3113 C   0  0  1  0  0  0  0  0  0  0  0  0
    3.9829   -3.4703   -1.8765 C   0  0  0  0  0  0  0  0  0  0  0  0
    3.8583   -2.1876   -2.6561 C   0  0  0  0  0  0  0  0  0  0  0  0
    3.0464   -1.9032   -3.7271 C   0  0  0  0  0  0  0  0  0  0  0  0
    3.2872   -0.5694   -4.0558 N   0  0  0  0  0  0  0  0  0  0  0  0
    2.6747    0.2073   -5.1087 C   0  0  0  0  0  0  0  0  0  0  0  0
    4.2126   -0.1539   -3.1976 C   0  0  0  0  0  0  0  0  0  0  0  0
    4.6766   -1.0952   -2.4012 N   0  0  0  0  0  0  0  0  0  0  0  0
    5.6236   -3.3143    0.0338 C   0  0  0  0  0  0  0  0  0  0  0  0
    6.3121   -2.3642   -0.3494 O   0  0  0  0  0  0  0  0  0  0  0  0
    6.1983   -4.2763    0.7521 N   0  0  0  0  0  0  0  0  0  0  0  0
    5.5783   -5.3546    1.2441 C   0  0  0  0  0  0  0  0  0  0  0  0
    6.2648   -6.1353    1.8931 O   0  0  0  0  0  0  0  0  0  0  0  0
    4.2487   -5.5295    1.0139 N   0  0  0  0  0  0  0  0  0  0  0  0
    3.4553   -4.6713    0.3112 C   0  0  0  0  0  0  0  0  0  0  0  0
    2.2393   -4.8308    0.1391 O   0  0  0  0  0  0  0  0  0  0  0  0
    2.9973   -1.0039    2.1041 H   0  0  0  0  0  0  0  0  0  0  0  0
    4.5856   -1.7351    2.0826 H   0  0  0  0  0  0  0  0  0  0  0  0
    3.1604   -2.7332    2.4102 H   0  0  0  0  0  0  0  0  0  0  0  0
    2.3067   -2.2364    0.0882 H   0  0  0  0  0  0  0  0  0  0  0  0
    3.6803   -1.2006   -0.1440 H   0  0  0  0  0  0  0  0  0  0  0  0
    4.8031   -4.0599   -2.2895 H   0  0  0  0  0  0  0  0  0  0  0  0
    3.0911   -4.0465   -2.1210 H   0  0  0  0  0  0  0  0  0  0  0  0
    2.3222   -2.5091   -4.2654 H   0  0  0  0  0  0  0  0  0  0  0  0
    3.0669    1.2276   -5.0945 H   0  0  0  0  0  0  0  0  0  0  0  0
    1.5941    0.2431   -4.9755 H   0  0  0  0  0  0  0  0  0  0  0  0
    2.9108   -0.2499   -6.0687 H   0  0  0  0  0  0  0  0  0  0  0  0
    4.5812    0.8606   -3.1543 H   0  0  0  0  0  0  0  0  0  0  0  0
    7.1873   -4.1853    0.9584 H   0  0  0  0  0  0  0  0  0  0  0  0
  1  2  1  0
  1 19  1  0
  1 20  1  0
  1 21  1  0
  3  2  1  1
  2 22  1  0
  2 23  1  0
  3 17  1  0
  3  4  1  0
  3 11  1  0
  4  5  1  0
  4 24  1  0
  4 25  1  0
  5 10  1  0
  5  6  2  0
  6  7  1  0
  6 26  1  0
  7  8  1  0
  7  9  1  0
  8 27  1  0
  8 28  1  0
  8 29  1  0
  9 10  2  0
  9 30  1  0
 11 12  2  0
 11 13  1  0
 13 14  1  0
 13 31  1  0
 14 15  2  0
 14 16  1  0
 16 17  1  0
 17 18  2  0
M  CHG  1  16  -1
M  END
>  <i_m_ct_stereo_status>  (149) 
1

>  <s_m_source_file>  (149) 
/var/tmp/pbs.5076255.sched01/tmpxs4nfypl/40fgi3imsd.sdf

>  <i_m_source_file_index>  (149) 
27

>  <i_lp_mmshare_version>  (149) 
48012

>  <i_f3d_flags>  (149) 
0

>  <s_epik_input>  (149) 
Tz1DMVtOSF1DKD1PKVtOSF1DKD1PKUMxKFtDSDJdW0NIM10pW0NIMl1jMltjSF1uKFtDSDNdKVtjSF1uMg==

>  <s_epik_cmdline>  (149) 
J2VwaWtfcHl0aG9uJywgJy1waHQnLCAnMi4wJywgJy1waCcsICc3LjAnLCAnLXRuJywgJzgnLCAnLW1hJywgJzIwMCcsICctaW1hZScsICc8aW5maWxlLm1hZT4nLCAnLW9tYWUnLCAnPG91dGZpbGUubWFlPic=

>  <r_lp_tautomer_probability>  (149) 
1

>  <r_epik_Ionization_Penalty>  (149) 
1.40179

>  <r_epik_Ionization_Penalty_Charging>  (149) 
1.40178

>  <r_epik_Ionization_Penalty_Neutral>  (149) 
3.98734e-06

>  <r_epik_State_Penalty>  (149) 
1.45573

>  <r_epik_Charging_Adjusted_Penalty>  (149) 
2.85752

>  <i_epik_Tot_Q>  (149) 
-1

>  <i_epik_Tot_abs_Q>  (149) 
1

>  <s_lp_Force_Field>  (149) 
OPLS3e

>  <r_lp_Energy>  (149) 
20.404

>  <b_lp_Chiralities_Consistent>  (149) 
1

>  <s_lp_Variant>  (149) 
52:0-3

>  <s_i_glide_gridfile>  (149) 
pfpi4k_grid

>  <i_i_glide_lignum>  (149) 
27

>  <i_i_glide_rotatable_bonds>  (149) 
3

>  <r_i_docking_score>  (149) 
-3.79476

>  <r_i_glide_ligand_efficiency>  (149) 
-0.21082

>  <r_i_glide_ligand_efficiency_sa>  (149) 
-0.552504

>  <r_i_glide_ligand_efficiency_ln>  (149) 
-0.975423

>  <r_i_glide_gscore>  (149) 
-3.79476

>  <r_i_glide_lipo>  (149) 
-0.286541

>  <r_i_glide_hbond>  (149) 
-0.00792008

>  <r_i_glide_metal>  (149) 
-0

>  <r_i_glide_rewards>  (149) 
-2.4245

>  <r_i_glide_evdw>  (149) 
-24.0637

>  <r_i_glide_ecoul>  (149) 
-2.82945

>  <r_i_glide_erotb>  (149) 
0.562907

>  <r_i_glide_esite>  (149) 
-0.0110991

>  <r_i_glide_emodel>  (149) 
-32.7395

>  <r_i_glide_energy>  (149) 
-26.8932

>  <r_i_glide_einternal>  (149) 
2.93263

>  <r_i_glide_intrahb_reward>  (149) 
-0

>  <i_i_glide_confnum>  (149) 
3

>  <i_i_glide_posenum>  (149) 
27

>  <r_i_glide_eff_state_penalty>  (149) 
0

>  <ligand_id>  (149) 
52

>  <original_smiles>  (149) 
CCC1(Cc2cn(C)cn2)C(=O)NC(=O)NC1=O

>  <smiles>  (149) 
[H]c1nc(C([H])([H])C2(C([H])([H])C([H])([H])[H])C(=O)[N-]C(=O)N([H])C2=O)c([H])n1C([H])([H])[H]

$$$$
52:2:2
     RDKit          3D

 31 32  0  0  1  0  0  0  0  0999 V2000
    6.6263   -3.0777   -2.4000 C   0  0  0  0  0  0  0  0  0  0  0  0
    5.3187   -3.5931   -1.7609 C   0  0  0  0  0  0  0  0  0  0  0  0
    4.0448   -2.7443   -2.0932 C   0  0  1  0  0  0  0  0  0  0  0  0
    2.7675   -3.3338   -1.3975 C   0  0  0  0  0  0  0  0  0  0  0  0
    2.8779   -3.6578    0.0660 C   0  0  0  0  0  0  0  0  0  0  0  0
    2.6168   -2.8496    1.1569 C   0  0  0  0  0  0  0  0  0  0  0  0
    2.8516   -3.6204    2.2849 N   0  0  0  0  0  0  0  0  0  0  0  0
    2.7080   -3.2173    3.6659 C   0  0  0  0  0  0  0  0  0  0  0  0
    3.2345   -4.8254    1.8268 C   0  0  0  0  0  0  0  0  0  0  0  0
    3.2544   -4.9188    0.5093 N   0  0  0  0  0  0  0  0  0  0  0  0
    4.2617   -1.2875   -1.6108 C   0  0  0  0  0  0  0  0  0  0  0  0
    4.5237   -1.0804   -0.4417 O   0  0  0  0  0  0  0  0  0  0  0  0
    4.2179   -0.2587   -2.4698 N   0  0  0  0  0  0  0  0  0  0  0  0
    3.9210   -0.3551   -3.7698 C   0  0  0  0  0  0  0  0  0  0  0  0
    3.8603    0.6836   -4.4271 O   0  0  0  0  0  0  0  0  0  0  0  0
    3.7759   -1.5774   -4.3219 N   0  0  0  0  0  0  0  0  0  0  0  0
    3.8118   -2.7618   -3.6357 C   0  0  0  0  0  0  0  0  0  0  0  0
    3.7265   -3.8531   -4.1816 O   0  0  0  0  0  0  0  0  0  0  0  0
    7.4715   -3.7081   -2.1426 H   0  0  0  0  0  0  0  0  0  0  0  0
    6.8902   -2.0736   -2.0703 H   0  0  0  0  0  0  0  0  0  0  0  0
    6.5731   -3.0666   -3.4890 H   0  0  0  0  0  0  0  0  0  0  0  0
    5.1523   -4.6233   -2.0951 H   0  0  0  0  0  0  0  0  0  0  0  0
    5.4839   -3.6432   -0.6814 H   0  0  0  0  0  0  0  0  0  0  0  0
    1.9270   -2.6524   -1.5739 H   0  0  0  0  0  0  0  0  0  0  0  0
    2.4355   -4.2401   -1.9006 H   0  0  0  0  0  0  0  0  0  0  0  0
    2.2922   -1.8127    1.1960 H   0  0  0  0  0  0  0  0  0  0  0  0
    2.9657   -4.0424    4.3319 H   0  0  0  0  0  0  0  0  0  0  0  0
    1.6790   -2.9153    3.8550 H   0  0  0  0  0  0  0  0  0  0  0  0
    3.3653   -2.3747    3.8713 H   0  0  0  0  0  0  0  0  0  0  0  0
    3.4896   -5.6562    2.4701 H   0  0  0  0  0  0  0  0  0  0  0  0
    4.3572    0.6684   -2.0612 H   0  0  0  0  0  0  0  0  0  0  0  0
  1  2  1  0
  1 19  1  0
  1 20  1  0
  1 21  1  0
  3  2  1  6
  2 22  1  0
  2 23  1  0
  3 17  1  0
  3  4  1  0
  3 11  1  0
  4  5  1  0
  4 24  1  0
  4 25  1  0
  5 10  1  0
  5  6  2  0
  6  7  1  0
  6 26  1  0
  7  8  1  0
  7  9  1  0
  8 27  1  0
  8 28  1  0
  8 29  1  0
  9 10  2  0
  9 30  1  0
 11 12  2  0
 11 13  1  0
 13 14  1  0
 13 31  1  0
 14 15  2  0
 14 16  1  0
 16 17  1  0
 17 18  2  0
M  CHG  1  16  -1
M  END
>  <i_m_ct_stereo_status>  (150) 
1

>  <s_m_source_file>  (150) 
/var/tmp/pbs.5076255.sched01/tmpxs4nfypl/40fgi3imsd.sdf

>  <i_m_source_file_index>  (150) 
27

>  <i_lp_mmshare_version>  (150) 
48012

>  <i_f3d_flags>  (150) 
0

>  <s_epik_input>  (150) 
Tz1DMVtOSF1DKD1PKVtOSF1DKD1PKUMxKFtDSDJdW0NIM10pW0NIMl1jMltjSF1uKFtDSDNdKVtjSF1uMg==

>  <s_epik_cmdline>  (150) 
J2VwaWtfcHl0aG9uJywgJy1waHQnLCAnMi4wJywgJy1waCcsICc3LjAnLCAnLXRuJywgJzgnLCAnLW1hJywgJzIwMCcsICctaW1hZScsICc8aW5maWxlLm1hZT4nLCAnLW9tYWUnLCAnPG91dGZpbGUubWFlPic=

>  <r_lp_tautomer_probability>  (150) 
1

>  <r_epik_Ionization_Penalty>  (150) 
1.40179

>  <r_epik_Ionization_Penalty_Charging>  (150) 
1.40178

>  <r_epik_Ionization_Penalty_Neutral>  (150) 
3.98734e-06

>  <r_epik_State_Penalty>  (150) 
1.45573

>  <r_epik_Charging_Adjusted_Penalty>  (150) 
2.85752

>  <i_epik_Tot_Q>  (150) 
-1

>  <i_epik_Tot_abs_Q>  (150) 
1

>  <s_lp_Force_Field>  (150) 
OPLS3e

>  <r_lp_Energy>  (150) 
20.404

>  <b_lp_Chiralities_Consistent>  (150) 
1

>  <s_lp_Variant>  (150) 
52:0-3

>  <s_i_glide_gridfile>  (150) 
pfpi4k_grid

>  <i_i_glide_lignum>  (150) 
27

>  <i_i_glide_rotatable_bonds>  (150) 
3

>  <r_i_docking_score>  (150) 
-3.78589

>  <r_i_glide_ligand_efficiency>  (150) 
-0.210327

>  <r_i_glide_ligand_efficiency_sa>  (150) 
-0.551214

>  <r_i_glide_ligand_efficiency_ln>  (150) 
-0.973145

>  <r_i_glide_gscore>  (150) 
-3.78589

>  <r_i_glide_lipo>  (150) 
-0.176915

>  <r_i_glide_hbond>  (150) 
-0.47431

>  <r_i_glide_metal>  (150) 
-0

>  <r_i_glide_rewards>  (150) 
-2.38017

>  <r_i_glide_evdw>  (150) 
-22.6431

>  <r_i_glide_ecoul>  (150) 
-0.905265

>  <r_i_glide_erotb>  (150) 
0.562907

>  <r_i_glide_esite>  (150) 
-0.0494643

>  <r_i_glide_emodel>  (150) 
-30.9441

>  <r_i_glide_energy>  (150) 
-23.5484

>  <r_i_glide_einternal>  (150) 
1.14084

>  <r_i_glide_intrahb_reward>  (150) 
-0

>  <i_i_glide_confnum>  (150) 
4

>  <i_i_glide_posenum>  (150) 
11

>  <r_i_glide_eff_state_penalty>  (150) 
0

>  <ligand_id>  (150) 
52

>  <original_smiles>  (150) 
CCC1(Cc2cn(C)cn2)C(=O)NC(=O)NC1=O

>  <smiles>  (150) 
[H]c1nc(C([H])([H])C2(C([H])([H])C([H])([H])[H])C(=O)[N-]C(=O)N([H])C2=O)c([H])n1C([H])([H])[H]

$$$$
52:3:0
     RDKit          3D

 31 32  0  0  1  0  0  0  0  0999 V2000
   -2.8121    3.5774    7.8796 C   0  0  0  0  0  0  0  0  0  0  0  0
   -2.9476    2.7147    6.5969 C   0  0  0  0  0  0  0  0  0  0  0  0
   -1.6332    2.4244    5.7997 C   0  0  1  0  0  0  0  0  0  0  0  0
   -1.9193    1.5238    4.5482 C   0  0  0  0  0  0  0  0  0  0  0  0
   -0.7070    0.9298    3.8573 C   0  0  0  0  0  0  0  0  0  0  0  0
    0.0389    1.4157    2.8053 C   0  0  0  0  0  0  0  0  0  0  0  0
    1.0424    0.4803    2.5570 N   0  0  0  0  0  0  0  0  0  0  0  0
    2.0612    0.5429    1.5320 C   0  0  0  0  0  0  0  0  0  0  0  0
    0.8548   -0.4889    3.4585 C   0  0  0  0  0  0  0  0  0  0  0  0
   -0.1817   -0.2930    4.2644 N   0  0  0  0  0  0  0  0  0  0  0  0
   -1.0435    3.7856    5.2975 C   0  0  0  0  0  0  0  0  0  0  0  0
   -1.7697    4.4677    4.5624 O   0  0  0  0  0  0  0  0  0  0  0  0
    0.2034    4.1411    5.7129 N   0  0  0  0  0  0  0  0  0  0  0  0
    0.9940    3.3916    6.5252 C   0  0  0  0  0  0  0  0  0  0  0  0
    2.1221    3.7280    6.8739 O   0  0  0  0  0  0  0  0  0  0  0  0
    0.5465    2.2208    7.0048 N   0  0  0  0  0  0  0  0  0  0  0  0
   -0.6540    1.6867    6.7512 C   0  0  0  0  0  0  0  0  0  0  0  0
   -1.0074    0.6201    7.2689 O   0  0  0  0  0  0  0  0  0  0  0  0
   -3.7807    3.7257    8.3622 H   0  0  0  0  0  0  0  0  0  0  0  0
   -2.4055    4.5692    7.6755 H   0  0  0  0  0  0  0  0  0  0  0  0
   -2.1607    3.1178    8.6256 H   0  0  0  0  0  0  0  0  0  0  0  0
   -3.4000    1.7703    6.8916 H   0  0  0  0  0  0  0  0  0  0  0  0
   -3.6769    3.1958    5.9412 H   0  0  0  0  0  0  0  0  0  0  0  0
   -2.5729    0.7039    4.8361 H   0  0  0  0  0  0  0  0  0  0  0  0
   -2.5014    2.0877    3.8126 H   0  0  0  0  0  0  0  0  0  0  0  0
   -0.0599    2.3264    2.2199 H   0  0  0  0  0  0  0  0  0  0  0  0
    2.7151   -0.3270    1.5941 H   0  0  0  0  0  0  0  0  0  0  0  0
    2.6554    1.4488    1.6542 H   0  0  0  0  0  0  0  0  0  0  0  0
    1.5887    0.5488    0.5512 H   0  0  0  0  0  0  0  0  0  0  0  0
    1.4876   -1.3622    3.5160 H   0  0  0  0  0  0  0  0  0  0  0  0
    1.1735    1.7048    7.6066 H   0  0  0  0  0  0  0  0  0  0  0  0
  1  2  1  0
  1 19  1  0
  1 20  1  0
  1 21  1  0
  3  2  1  1
  2 22  1  0
  2 23  1  0
  3 17  1  0
  3  4  1  0
  3 11  1  0
  4  5  1  0
  4 24  1  0
  4 25  1  0
  5 10  1  0
  5  6  2  0
  6  7  1  0
  6 26  1  0
  7  8  1  0
  7  9  1  0
  8 27  1  0
  8 28  1  0
  8 29  1  0
  9 10  2  0
  9 30  1  0
 11 12  2  0
 11 13  1  0
 13 14  1  0
 14 15  2  0
 14 16  1  0
 16 17  1  0
 16 31  1  0
 17 18  2  0
M  CHG  1  13  -1
M  END
>  <i_m_ct_stereo_status>  (151) 
1

>  <s_m_source_file>  (151) 
/var/tmp/pbs.5076255.sched01/tmpxs4nfypl/40fgi3imsd.sdf

>  <i_m_source_file_index>  (151) 
28

>  <i_lp_mmshare_version>  (151) 
48012

>  <i_f3d_flags>  (151) 
0

>  <s_epik_input>  (151) 
Tz1DMVtOSF1DKD1PKVtOSF1DKD1PKUMxKFtDSDJdW0NIM10pW0NIMl1jMltjSF1uKFtDSDNdKVtjSF1uMg==

>  <s_epik_cmdline>  (151) 
J2VwaWtfcHl0aG9uJywgJy1waHQnLCAnMi4wJywgJy1waCcsICc3LjAnLCAnLXRuJywgJzgnLCAnLW1hJywgJzIwMCcsICctaW1hZScsICc8aW5maWxlLm1hZT4nLCAnLW9tYWUnLCAnPG91dGZpbGUubWFlPic=

>  <r_lp_tautomer_probability>  (151) 
1

>  <r_epik_Ionization_Penalty>  (151) 
1.40179

>  <r_epik_Ionization_Penalty_Charging>  (151) 
1.40178

>  <r_epik_Ionization_Penalty_Neutral>  (151) 
3.98735e-06

>  <r_epik_State_Penalty>  (151) 
1.45573

>  <r_epik_Charging_Adjusted_Penalty>  (151) 
2.85752

>  <i_epik_Tot_Q>  (151) 
-1

>  <i_epik_Tot_abs_Q>  (151) 
1

>  <s_lp_Force_Field>  (151) 
OPLS3e

>  <r_lp_Energy>  (151) 
20.3491

>  <b_lp_Chiralities_Consistent>  (151) 
1

>  <s_lp_Variant>  (151) 
52:0-4

>  <s_i_glide_gridfile>  (151) 
pfpi4k_grid

>  <i_i_glide_lignum>  (151) 
28

>  <i_i_glide_rotatable_bonds>  (151) 
3

>  <r_i_docking_score>  (151) 
-3.4411

>  <r_i_glide_ligand_efficiency>  (151) 
-0.191172

>  <r_i_glide_ligand_efficiency_sa>  (151) 
-0.501014

>  <r_i_glide_ligand_efficiency_ln>  (151) 
-0.884518

>  <r_i_glide_gscore>  (151) 
-3.4411

>  <r_i_glide_lipo>  (151) 
-0.341106

>  <r_i_glide_hbond>  (151) 
-0.19654

>  <r_i_glide_metal>  (151) 
-0

>  <r_i_glide_rewards>  (151) 
-1.70969

>  <r_i_glide_evdw>  (151) 
-15.6413

>  <r_i_glide_ecoul>  (151) 
-5.9823

>  <r_i_glide_erotb>  (151) 
0.562907

>  <r_i_glide_esite>  (151) 
-0.0772663

>  <r_i_glide_emodel>  (151) 
-29.0263

>  <r_i_glide_energy>  (151) 
-21.6236

>  <r_i_glide_einternal>  (151) 
0.810881

>  <r_i_glide_intrahb_reward>  (151) 
-0

>  <i_i_glide_confnum>  (151) 
5

>  <i_i_glide_posenum>  (151) 
2

>  <r_i_glide_eff_state_penalty>  (151) 
0

>  <ligand_id>  (151) 
52

>  <original_smiles>  (151) 
CCC1(Cc2cn(C)cn2)C(=O)NC(=O)NC1=O

>  <smiles>  (151) 
[H]c1nc(C([H])([H])C2(C([H])([H])C([H])([H])[H])C(=O)[N-]C(=O)N([H])C2=O)c([H])n1C([H])([H])[H]

$$$$
52:3:1
     RDKit          3D

 31 32  0  0  1  0  0  0  0  0999 V2000
    5.4545   -5.8615    0.7900 C   0  0  0  0  0  0  0  0  0  0  0  0
    5.8433   -4.3693    0.8725 C   0  0  0  0  0  0  0  0  0  0  0  0
    5.0223   -3.3558    0.0049 C   0  0  1  0  0  0  0  0  0  0  0  0
    4.9915   -3.7763   -1.4955 C   0  0  0  0  0  0  0  0  0  0  0  0
    4.2220   -2.8491   -2.4234 C   0  0  0  0  0  0  0  0  0  0  0  0
    4.5550   -1.6014   -2.8895 C   0  0  0  0  0  0  0  0  0  0  0  0
    3.5119   -1.1754   -3.7101 N   0  0  0  0  0  0  0  0  0  0  0  0
    3.4172    0.0805   -4.4207 C   0  0  0  0  0  0  0  0  0  0  0  0
    2.6199   -2.1662   -3.6921 C   0  0  0  0  0  0  0  0  0  0  0  0
    2.9720   -3.1949   -2.9367 N   0  0  0  0  0  0  0  0  0  0  0  0
    3.5553   -3.2295    0.5765 C   0  0  0  0  0  0  0  0  0  0  0  0
    2.8472   -4.2441    0.5707 O   0  0  0  0  0  0  0  0  0  0  0  0
    3.1567   -2.0203    1.0639 N   0  0  0  0  0  0  0  0  0  0  0  0
    3.8871   -0.8725    1.0290 C   0  0  0  0  0  0  0  0  0  0  0  0
    3.4697    0.2085    1.4197 O   0  0  0  0  0  0  0  0  0  0  0  0
    5.1451   -0.9047    0.5700 N   0  0  0  0  0  0  0  0  0  0  0  0
    5.7518   -1.9873    0.0972 C   0  0  0  0  0  0  0  0  0  0  0  0
    6.9078   -1.8970   -0.3248 O   0  0  0  0  0  0  0  0  0  0  0  0
    6.0778   -6.4640    1.4528 H   0  0  0  0  0  0  0  0  0  0  0  0
    5.5739   -6.2500   -0.2194 H   0  0  0  0  0  0  0  0  0  0  0  0
    4.4262   -6.0518    1.0949 H   0  0  0  0  0  0  0  0  0  0  0  0
    5.7491   -4.0733    1.9185 H   0  0  0  0  0  0  0  0  0  0  0  0
    6.9112   -4.3018    0.6568 H   0  0  0  0  0  0  0  0  0  0  0  0
    6.0047   -3.9007   -1.8757 H   0  0  0  0  0  0  0  0  0  0  0  0
    4.5394   -4.7577   -1.5610 H   0  0  0  0  0  0  0  0  0  0  0  0
    5.4164   -0.9813   -2.6992 H   0  0  0  0  0  0  0  0  0  0  0  0
    2.4915    0.1233   -4.9968 H   0  0  0  0  0  0  0  0  0  0  0  0
    4.2621    0.1930   -5.0956 H   0  0  0  0  0  0  0  0  0  0  0  0
    3.4339    0.9029   -3.7094 H   0  0  0  0  0  0  0  0  0  0  0  0
    1.6981   -2.1571   -4.2536 H   0  0  0  0  0  0  0  0  0  0  0  0
    5.6456   -0.0213    0.5706 H   0  0  0  0  0  0  0  0  0  0  0  0
  1  2  1  0
  1 19  1  0
  1 20  1  0
  1 21  1  0
  3  2  1  1
  2 22  1  0
  2 23  1  0
  3 17  1  0
  3  4  1  0
  3 11  1  0
  4  5  1  0
  4 24  1  0
  4 25  1  0
  5 10  1  0
  5  6  2  0
  6  7  1  0
  6 26  1  0
  7  8  1  0
  7  9  1  0
  8 27  1  0
  8 28  1  0
  8 29  1  0
  9 10  2  0
  9 30  1  0
 11 12  2  0
 11 13  1  0
 13 14  1  0
 14 15  2  0
 14 16  1  0
 16 17  1  0
 16 31  1  0
 17 18  2  0
M  CHG  1  13  -1
M  END
>  <i_m_ct_stereo_status>  (152) 
1

>  <s_m_source_file>  (152) 
/var/tmp/pbs.5076255.sched01/tmpxs4nfypl/40fgi3imsd.sdf

>  <i_m_source_file_index>  (152) 
28

>  <i_lp_mmshare_version>  (152) 
48012

>  <i_f3d_flags>  (152) 
0

>  <s_epik_input>  (152) 
Tz1DMVtOSF1DKD1PKVtOSF1DKD1PKUMxKFtDSDJdW0NIM10pW0NIMl1jMltjSF1uKFtDSDNdKVtjSF1uMg==

>  <s_epik_cmdline>  (152) 
J2VwaWtfcHl0aG9uJywgJy1waHQnLCAnMi4wJywgJy1waCcsICc3LjAnLCAnLXRuJywgJzgnLCAnLW1hJywgJzIwMCcsICctaW1hZScsICc8aW5maWxlLm1hZT4nLCAnLW9tYWUnLCAnPG91dGZpbGUubWFlPic=

>  <r_lp_tautomer_probability>  (152) 
1

>  <r_epik_Ionization_Penalty>  (152) 
1.40179

>  <r_epik_Ionization_Penalty_Charging>  (152) 
1.40178

>  <r_epik_Ionization_Penalty_Neutral>  (152) 
3.98735e-06

>  <r_epik_State_Penalty>  (152) 
1.45573

>  <r_epik_Charging_Adjusted_Penalty>  (152) 
2.85752

>  <i_epik_Tot_Q>  (152) 
-1

>  <i_epik_Tot_abs_Q>  (152) 
1

>  <s_lp_Force_Field>  (152) 
OPLS3e

>  <r_lp_Energy>  (152) 
20.3491

>  <b_lp_Chiralities_Consistent>  (152) 
1

>  <s_lp_Variant>  (152) 
52:0-4

>  <s_i_glide_gridfile>  (152) 
pfpi4k_grid

>  <i_i_glide_lignum>  (152) 
28

>  <i_i_glide_rotatable_bonds>  (152) 
3

>  <r_i_docking_score>  (152) 
-3.41743

>  <r_i_glide_ligand_efficiency>  (152) 
-0.189857

>  <r_i_glide_ligand_efficiency_sa>  (152) 
-0.497566

>  <r_i_glide_ligand_efficiency_ln>  (152) 
-0.878432

>  <r_i_glide_gscore>  (152) 
-3.41743

>  <r_i_glide_lipo>  (152) 
-0.360396

>  <r_i_glide_hbond>  (152) 
-0.144567

>  <r_i_glide_metal>  (152) 
-0

>  <r_i_glide_rewards>  (152) 
-2.3272

>  <r_i_glide_evdw>  (152) 
-26.8879

>  <r_i_glide_ecoul>  (152) 
1.37524

>  <r_i_glide_erotb>  (152) 
0.562907

>  <r_i_glide_esite>  (152) 
-0.0100592

>  <r_i_glide_emodel>  (152) 
-30.7759

>  <r_i_glide_energy>  (152) 
-25.5127

>  <r_i_glide_einternal>  (152) 
4.9698

>  <r_i_glide_intrahb_reward>  (152) 
-0

>  <i_i_glide_confnum>  (152) 
3

>  <i_i_glide_posenum>  (152) 
5

>  <r_i_glide_eff_state_penalty>  (152) 
0

>  <ligand_id>  (152) 
52

>  <original_smiles>  (152) 
CCC1(Cc2cn(C)cn2)C(=O)NC(=O)NC1=O

>  <smiles>  (152) 
[H]c1nc(C([H])([H])C2(C([H])([H])C([H])([H])[H])C(=O)[N-]C(=O)N([H])C2=O)c([H])n1C([H])([H])[H]

$$$$
52:3:2
     RDKit          3D

 31 32  0  0  1  0  0  0  0  0999 V2000
    3.1804   -8.6985    1.3804 C   0  0  0  0  0  0  0  0  0  0  0  0
    3.7161   -7.2478    1.3270 C   0  0  0  0  0  0  0  0  0  0  0  0
    2.8183   -6.1606    2.0025 C   0  0  1  0  0  0  0  0  0  0  0  0
    3.4519   -4.7246    1.9221 C   0  0  0  0  0  0  0  0  0  0  0  0
    3.8447   -4.2302    0.5513 C   0  0  0  0  0  0  0  0  0  0  0  0
    3.1785   -3.3535   -0.2803 C   0  0  0  0  0  0  0  0  0  0  0  0
    3.9304   -3.2591   -1.4454 N   0  0  0  0  0  0  0  0  0  0  0  0
    3.6167   -2.4772   -2.6212 C   0  0  0  0  0  0  0  0  0  0  0  0
    4.9961   -4.0453   -1.2457 C   0  0  0  0  0  0  0  0  0  0  0  0
    5.0263   -4.6388   -0.0589 N   0  0  0  0  0  0  0  0  0  0  0  0
    1.4087   -6.1398    1.3127 C   0  0  0  0  0  0  0  0  0  0  0  0
    1.3430   -5.8585    0.1142 O   0  0  0  0  0  0  0  0  0  0  0  0
    0.2976   -6.3686    2.0647 N   0  0  0  0  0  0  0  0  0  0  0  0
    0.3036   -6.6593    3.3886 C   0  0  0  0  0  0  0  0  0  0  0  0
   -0.7311   -6.8296    4.0286 O   0  0  0  0  0  0  0  0  0  0  0  0
    1.4669   -6.7228    4.0531 N   0  0  0  0  0  0  0  0  0  0  0  0
    2.6784   -6.5085    3.5164 C   0  0  0  0  0  0  0  0  0  0  0  0
    3.6897   -6.5764    4.2123 O   0  0  0  0  0  0  0  0  0  0  0  0
    3.8568   -9.3800    0.8654 H   0  0  0  0  0  0  0  0  0  0  0  0
    2.2066   -8.7971    0.8960 H   0  0  0  0  0  0  0  0  0  0  0  0
    3.0711   -9.0667    2.4021 H   0  0  0  0  0  0  0  0  0  0  0  0
    4.7164   -7.2316    1.7683 H   0  0  0  0  0  0  0  0  0  0  0  0
    3.8595   -7.0025    0.2740 H   0  0  0  0  0  0  0  0  0  0  0  0
    2.7512   -4.0118    2.3624 H   0  0  0  0  0  0  0  0  0  0  0  0
    4.3342   -4.6597    2.5610 H   0  0  0  0  0  0  0  0  0  0  0  0
    2.2422   -2.8234   -0.1574 H   0  0  0  0  0  0  0  0  0  0  0  0
    4.4104   -2.5820   -3.3612 H   0  0  0  0  0  0  0  0  0  0  0  0
    3.5195   -1.4262   -2.3477 H   0  0  0  0  0  0  0  0  0  0  0  0
    2.6767   -2.8198   -3.0557 H   0  0  0  0  0  0  0  0  0  0  0  0
    5.7637   -4.1893   -1.9900 H   0  0  0  0  0  0  0  0  0  0  0  0
    1.4265   -6.9452    5.0400 H   0  0  0  0  0  0  0  0  0  0  0  0
  1  2  1  0
  1 19  1  0
  1 20  1  0
  1 21  1  0
  3  2  1  6
  2 22  1  0
  2 23  1  0
  3 17  1  0
  3  4  1  0
  3 11  1  0
  4  5  1  0
  4 24  1  0
  4 25  1  0
  5 10  1  0
  5  6  2  0
  6  7  1  0
  6 26  1  0
  7  8  1  0
  7  9  1  0
  8 27  1  0
  8 28  1  0
  8 29  1  0
  9 10  2  0
  9 30  1  0
 11 12  2  0
 11 13  1  0
 13 14  1  0
 14 15  2  0
 14 16  1  0
 16 17  1  0
 16 31  1  0
 17 18  2  0
M  CHG  1  13  -1
M  END
>  <i_m_ct_stereo_status>  (153) 
1

>  <s_m_source_file>  (153) 
/var/tmp/pbs.5076255.sched01/tmpxs4nfypl/40fgi3imsd.sdf

>  <i_m_source_file_index>  (153) 
28

>  <i_lp_mmshare_version>  (153) 
48012

>  <i_f3d_flags>  (153) 
0

>  <s_epik_input>  (153) 
Tz1DMVtOSF1DKD1PKVtOSF1DKD1PKUMxKFtDSDJdW0NIM10pW0NIMl1jMltjSF1uKFtDSDNdKVtjSF1uMg==

>  <s_epik_cmdline>  (153) 
J2VwaWtfcHl0aG9uJywgJy1waHQnLCAnMi4wJywgJy1waCcsICc3LjAnLCAnLXRuJywgJzgnLCAnLW1hJywgJzIwMCcsICctaW1hZScsICc8aW5maWxlLm1hZT4nLCAnLW9tYWUnLCAnPG91dGZpbGUubWFlPic=

>  <r_lp_tautomer_probability>  (153) 
1

>  <r_epik_Ionization_Penalty>  (153) 
1.40179

>  <r_epik_Ionization_Penalty_Charging>  (153) 
1.40178

>  <r_epik_Ionization_Penalty_Neutral>  (153) 
3.98735e-06

>  <r_epik_State_Penalty>  (153) 
1.45573

>  <r_epik_Charging_Adjusted_Penalty>  (153) 
2.85752

>  <i_epik_Tot_Q>  (153) 
-1

>  <i_epik_Tot_abs_Q>  (153) 
1

>  <s_lp_Force_Field>  (153) 
OPLS3e

>  <r_lp_Energy>  (153) 
20.3491

>  <b_lp_Chiralities_Consistent>  (153) 
1

>  <s_lp_Variant>  (153) 
52:0-4

>  <s_i_glide_gridfile>  (153) 
pfpi4k_grid

>  <i_i_glide_lignum>  (153) 
28

>  <i_i_glide_rotatable_bonds>  (153) 
3

>  <r_i_docking_score>  (153) 
-3.34981

>  <r_i_glide_ligand_efficiency>  (153) 
-0.186101

>  <r_i_glide_ligand_efficiency_sa>  (153) 
-0.487722

>  <r_i_glide_ligand_efficiency_ln>  (153) 
-0.861052

>  <r_i_glide_gscore>  (153) 
-3.34981

>  <r_i_glide_lipo>  (153) 
-0.135655

>  <r_i_glide_hbond>  (153) 
-0.488084

>  <r_i_glide_metal>  (153) 
-0

>  <r_i_glide_rewards>  (153) 
-1.70969

>  <r_i_glide_evdw>  (153) 
-18.6606

>  <r_i_glide_ecoul>  (153) 
-3.28958

>  <r_i_glide_erotb>  (153) 
0.562907

>  <r_i_glide_esite>  (153) 
-0.152828

>  <r_i_glide_emodel>  (153) 
-29.4763

>  <r_i_glide_energy>  (153) 
-21.9501

>  <r_i_glide_einternal>  (153) 
0.380121

>  <r_i_glide_intrahb_reward>  (153) 
-0

>  <i_i_glide_confnum>  (153) 
2

>  <i_i_glide_posenum>  (153) 
11

>  <r_i_glide_eff_state_penalty>  (153) 
0

>  <ligand_id>  (153) 
52

>  <original_smiles>  (153) 
CCC1(Cc2cn(C)cn2)C(=O)NC(=O)NC1=O

>  <smiles>  (153) 
[H]c1nc(C([H])([H])C2(C([H])([H])C([H])([H])[H])C(=O)[N-]C(=O)N([H])C2=O)c([H])n1C([H])([H])[H]

$$$$
52:4:0
     RDKit          3D

 32 33  0  0  1  0  0  0  0  0999 V2000
    7.5344   -4.1202    0.9316 C   0  0  0  0  0  0  0  0  0  0  0  0
    6.0622   -3.8484    1.3251 C   0  0  0  0  0  0  0  0  0  0  0  0
    5.1727   -3.0099    0.3365 C   0  0  1  0  0  0  0  0  0  0  0  0
    5.0566   -3.7000   -1.0752 C   0  0  0  0  0  0  0  0  0  0  0  0
    4.2783   -2.9228   -2.1115 C   0  0  0  0  0  0  0  0  0  0  0  0
    4.4461   -1.6578   -2.6141 C   0  0  0  0  0  0  0  0  0  0  0  0
    3.4694   -1.4568   -3.5453 N   0  0  0  0  0  0  0  0  0  0  0  0
    3.2646   -0.2342   -4.3283 C   0  0  0  0  0  0  0  0  0  0  0  0
    2.7066   -2.5408   -3.6385 C   0  0  0  0  0  0  0  0  0  0  0  0
    3.2113   -3.4496   -2.7967 N   0  0  0  0  0  0  0  0  0  0  0  0
    3.7459   -2.9433    0.9532 C   0  0  0  0  0  0  0  0  0  0  0  0
    3.1429   -3.9940    1.1434 O   0  0  0  0  0  0  0  0  0  0  0  0
    3.1751   -1.7665    1.2602 N   0  0  0  0  0  0  0  0  0  0  0  0
    3.7539   -0.5719    1.0824 C   0  0  0  0  0  0  0  0  0  0  0  0
    3.0947    0.4224    1.3732 O   0  0  0  0  0  0  0  0  0  0  0  0
    5.0213   -0.5013    0.6029 N   0  0  0  0  0  0  0  0  0  0  0  0
    5.7716   -1.5666    0.2008 C   0  0  0  0  0  0  0  0  0  0  0  0
    6.8700   -1.4600   -0.3495 O   0  0  0  0  0  0  0  0  0  0  0  0
    8.0502   -4.6831    1.7109 H   0  0  0  0  0  0  0  0  0  0  0  0
    8.1244   -3.2118    0.8099 H   0  0  0  0  0  0  0  0  0  0  0  0
    7.5978   -4.6902    0.0065 H   0  0  0  0  0  0  0  0  0  0  0  0
    5.5990   -4.8108    1.5511 H   0  0  0  0  0  0  0  0  0  0  0  0
    6.0840   -3.3142    2.2744 H   0  0  0  0  0  0  0  0  0  0  0  0
    6.0515   -3.8658   -1.4958 H   0  0  0  0  0  0  0  0  0  0  0  0
    4.6046   -4.6893   -0.9748 H   0  0  0  0  0  0  0  0  0  0  0  0
    5.1585   -0.8800   -2.3649 H   0  0  0  0  0  0  0  0  0  0  0  0
    2.3306   -0.2700   -4.9017 H   0  0  0  0  0  0  0  0  0  0  0  0
    4.1160   -0.0690   -4.9932 H   0  0  0  0  0  0  0  0  0  0  0  0
    3.2300    0.5946   -3.6277 H   0  0  0  0  0  0  0  0  0  0  0  0
    1.8564   -2.6657   -4.2833 H   0  0  0  0  0  0  0  0  0  0  0  0
    2.2350   -1.7668    1.6310 H   0  0  0  0  0  0  0  0  0  0  0  0
    2.8594   -4.3964   -2.7008 H   0  0  0  0  0  0  0  0  0  0  0  0
  1  2  1  0
  1 19  1  0
  1 20  1  0
  1 21  1  0
  3  2  1  1
  2 22  1  0
  2 23  1  0
  3 17  1  0
  3  4  1  0
  3 11  1  0
  4  5  1  0
  4 24  1  0
  4 25  1  0
  5 10  1  0
  5  6  2  0
  6  7  1  0
  6 26  1  0
  7  8  1  0
  7  9  1  0
  8 27  1  0
  8 28  1  0
  8 29  1  0
  9 10  2  0
  9 30  1  0
 10 32  1  0
 11 12  2  0
 11 13  1  0
 13 14  1  0
 13 31  1  0
 14 15  2  0
 14 16  1  0
 16 17  1  0
 17 18  2  0
M  CHG  2  10   1  16  -1
M  END
>  <i_m_ct_stereo_status>  (154) 
1

>  <s_m_source_file>  (154) 
/var/tmp/pbs.5076255.sched01/tmpxs4nfypl/40fgi3imsd.sdf

>  <i_m_source_file_index>  (154) 
29

>  <i_lp_mmshare_version>  (154) 
48012

>  <i_f3d_flags>  (154) 
0

>  <s_epik_input>  (154) 
Tz1DMVtOSF1DKD1PKVtOSF1DKD1PKUMxKFtDSDJdW0NIM10pW0NIMl1jMltjSF1uKFtDSDNdKVtjSF1uMg==

>  <s_epik_cmdline>  (154) 
J2VwaWtfcHl0aG9uJywgJy1waHQnLCAnMi4wJywgJy1waCcsICc3LjAnLCAnLXRuJywgJzgnLCAnLW1hJywgJzIwMCcsICctaW1hZScsICc8aW5maWxlLm1hZT4nLCAnLW9tYWUnLCAnPG91dGZpbGUubWFlPic=

>  <r_epik_Ionization_Penalty>  (154) 
1.28041

>  <r_epik_Ionization_Penalty_Charging>  (154) 
0.826022

>  <r_epik_Ionization_Penalty_Neutral>  (154) 
0.45439

>  <r_epik_State_Penalty>  (154) 
1.57146

>  <r_epik_Charging_Adjusted_Penalty>  (154) 
2.39748

>  <i_epik_Tot_Q>  (154) 
0

>  <i_epik_Tot_abs_Q>  (154) 
2

>  <s_lp_Force_Field>  (154) 
OPLS3e

>  <r_lp_Energy>  (154) 
20.7469

>  <b_lp_Chiralities_Consistent>  (154) 
1

>  <s_lp_Variant>  (154) 
52:0-5

>  <s_i_glide_gridfile>  (154) 
pfpi4k_grid

>  <i_i_glide_lignum>  (154) 
29

>  <i_i_glide_rotatable_bonds>  (154) 
3

>  <r_i_docking_score>  (154) 
-5.13203

>  <r_i_glide_ligand_efficiency>  (154) 
-0.285113

>  <r_i_glide_ligand_efficiency_sa>  (154) 
-0.747207

>  <r_i_glide_ligand_efficiency_ln>  (154) 
-1.31916

>  <r_i_glide_gscore>  (154) 
-5.13203

>  <r_i_glide_lipo>  (154) 
-0.558756

>  <r_i_glide_hbond>  (154) 
-0.120237

>  <r_i_glide_metal>  (154) 
-0

>  <r_i_glide_rewards>  (154) 
-2.39851

>  <r_i_glide_evdw>  (154) 
-23.9651

>  <r_i_glide_ecoul>  (154) 
-9.02711

>  <r_i_glide_erotb>  (154) 
0.559026

>  <r_i_glide_esite>  (154) 
-0.0612339

>  <r_i_glide_emodel>  (154) 
-42.6578

>  <r_i_glide_energy>  (154) 
-32.9922

>  <r_i_glide_einternal>  (154) 
4.90886

>  <r_i_glide_intrahb_reward>  (154) 
-0

>  <i_i_glide_confnum>  (154) 
2

>  <i_i_glide_posenum>  (154) 
3

>  <r_i_glide_eff_state_penalty>  (154) 
0

>  <ligand_id>  (154) 
52

>  <original_smiles>  (154) 
CCC1(Cc2cn(C)cn2)C(=O)NC(=O)NC1=O

>  <smiles>  (154) 
[H]c1c(C([H])([H])C2(C([H])([H])C([H])([H])[H])C(=O)[N-]C(=O)N([H])C2=O)[n+]([H])c([H])n1C([H])([H])[H]

$$$$
52:4:1
     RDKit          3D

 32 33  0  0  1  0  0  0  0  0999 V2000
    5.5921   -5.7430    0.6980 C   0  0  0  0  0  0  0  0  0  0  0  0
    6.0195   -4.2600    0.6255 C   0  0  0  0  0  0  0  0  0  0  0  0
    5.1677   -3.2751   -0.2585 C   0  0  1  0  0  0  0  0  0  0  0  0
    5.0657   -3.7819   -1.7429 C   0  0  0  0  0  0  0  0  0  0  0  0
    4.1525   -2.9689   -2.6166 C   0  0  0  0  0  0  0  0  0  0  0  0
    4.2542   -1.6973   -3.1228 C   0  0  0  0  0  0  0  0  0  0  0  0
    3.1351   -1.4640   -3.8706 N   0  0  0  0  0  0  0  0  0  0  0  0
    2.8234   -0.2330   -4.6053 C   0  0  0  0  0  0  0  0  0  0  0  0
    2.3403   -2.5400   -3.8274 C   0  0  0  0  0  0  0  0  0  0  0  0
    2.9539   -3.4554   -3.0717 N   0  0  0  0  0  0  0  0  0  0  0  0
    3.7353   -3.1267    0.3461 C   0  0  0  0  0  0  0  0  0  0  0  0
    2.9790   -4.1004    0.3755 O   0  0  0  0  0  0  0  0  0  0  0  0
    3.3212   -1.9306    0.7867 N   0  0  0  0  0  0  0  0  0  0  0  0
    4.0247   -0.7909    0.7399 C   0  0  0  0  0  0  0  0  0  0  0  0
    3.4716    0.2171    1.1674 O   0  0  0  0  0  0  0  0  0  0  0  0
    5.2843   -0.7956    0.2294 N   0  0  0  0  0  0  0  0  0  0  0  0
    5.9157   -1.8928   -0.2673 C   0  0  0  0  0  0  0  0  0  0  0  0
    7.0452   -1.8769   -0.7651 O   0  0  0  0  0  0  0  0  0  0  0  0
    6.2590   -6.2998    1.3579 H   0  0  0  0  0  0  0  0  0  0  0  0
    5.6308   -6.2178   -0.2811 H   0  0  0  0  0  0  0  0  0  0  0  0
    4.5883   -5.8767    1.0997 H   0  0  0  0  0  0  0  0  0  0  0  0
    6.0121   -3.8755    1.6444 H   0  0  0  0  0  0  0  0  0  0  0  0
    7.0751   -4.2411    0.3277 H   0  0  0  0  0  0  0  0  0  0  0  0
    6.0520   -3.7933   -2.2245 H   0  0  0  0  0  0  0  0  0  0  0  0
    4.7085   -4.8099   -1.7800 H   0  0  0  0  0  0  0  0  0  0  0  0
    5.0141   -0.9491   -2.9921 H   0  0  0  0  0  0  0  0  0  0  0  0
    1.8062   -0.2510   -5.0103 H   0  0  0  0  0  0  0  0  0  0  0  0
    3.5357   -0.1056   -5.4249 H   0  0  0  0  0  0  0  0  0  0  0  0
    2.9307    0.5996   -3.9131 H   0  0  0  0  0  0  0  0  0  0  0  0
    1.3902   -2.6608   -4.3156 H   0  0  0  0  0  0  0  0  0  0  0  0
    2.3702   -1.8702    1.1339 H   0  0  0  0  0  0  0  0  0  0  0  0
    2.5933   -4.3859   -2.8726 H   0  0  0  0  0  0  0  0  0  0  0  0
  1  2  1  0
  1 19  1  0
  1 20  1  0
  1 21  1  0
  3  2  1  1
  2 22  1  0
  2 23  1  0
  3 17  1  0
  3  4  1  0
  3 11  1  0
  4  5  1  0
  4 24  1  0
  4 25  1  0
  5 10  1  0
  5  6  2  0
  6  7  1  0
  6 26  1  0
  7  8  1  0
  7  9  1  0
  8 27  1  0
  8 28  1  0
  8 29  1  0
  9 10  2  0
  9 30  1  0
 10 32  1  0
 11 12  2  0
 11 13  1  0
 13 14  1  0
 13 31  1  0
 14 15  2  0
 14 16  1  0
 16 17  1  0
 17 18  2  0
M  CHG  2  10   1  16  -1
M  END
>  <i_m_ct_stereo_status>  (155) 
1

>  <s_m_source_file>  (155) 
/var/tmp/pbs.5076255.sched01/tmpxs4nfypl/40fgi3imsd.sdf

>  <i_m_source_file_index>  (155) 
29

>  <i_lp_mmshare_version>  (155) 
48012

>  <i_f3d_flags>  (155) 
0

>  <s_epik_input>  (155) 
Tz1DMVtOSF1DKD1PKVtOSF1DKD1PKUMxKFtDSDJdW0NIM10pW0NIMl1jMltjSF1uKFtDSDNdKVtjSF1uMg==

>  <s_epik_cmdline>  (155) 
J2VwaWtfcHl0aG9uJywgJy1waHQnLCAnMi4wJywgJy1waCcsICc3LjAnLCAnLXRuJywgJzgnLCAnLW1hJywgJzIwMCcsICctaW1hZScsICc8aW5maWxlLm1hZT4nLCAnLW9tYWUnLCAnPG91dGZpbGUubWFlPic=

>  <r_epik_Ionization_Penalty>  (155) 
1.28041

>  <r_epik_Ionization_Penalty_Charging>  (155) 
0.826022

>  <r_epik_Ionization_Penalty_Neutral>  (155) 
0.45439

>  <r_epik_State_Penalty>  (155) 
1.57146

>  <r_epik_Charging_Adjusted_Penalty>  (155) 
2.39748

>  <i_epik_Tot_Q>  (155) 
0

>  <i_epik_Tot_abs_Q>  (155) 
2

>  <s_lp_Force_Field>  (155) 
OPLS3e

>  <r_lp_Energy>  (155) 
20.7469

>  <b_lp_Chiralities_Consistent>  (155) 
1

>  <s_lp_Variant>  (155) 
52:0-5

>  <s_i_glide_gridfile>  (155) 
pfpi4k_grid

>  <i_i_glide_lignum>  (155) 
29

>  <i_i_glide_rotatable_bonds>  (155) 
3

>  <r_i_docking_score>  (155) 
-5.034

>  <r_i_glide_ligand_efficiency>  (155) 
-0.279667

>  <r_i_glide_ligand_efficiency_sa>  (155) 
-0.732934

>  <r_i_glide_ligand_efficiency_ln>  (155) 
-1.29396

>  <r_i_glide_gscore>  (155) 
-5.034

>  <r_i_glide_lipo>  (155) 
-0.510721

>  <r_i_glide_hbond>  (155) 
-0.16

>  <r_i_glide_metal>  (155) 
-0

>  <r_i_glide_rewards>  (155) 
-2.20974

>  <r_i_glide_evdw>  (155) 
-23.4428

>  <r_i_glide_ecoul>  (155) 
-9.81785

>  <r_i_glide_erotb>  (155) 
0.559026

>  <r_i_glide_esite>  (155) 
-0.0677443

>  <r_i_glide_emodel>  (155) 
-43.333

>  <r_i_glide_energy>  (155) 
-33.2606

>  <r_i_glide_einternal>  (155) 
4.38194

>  <r_i_glide_intrahb_reward>  (155) 
-0

>  <i_i_glide_confnum>  (155) 
2

>  <i_i_glide_posenum>  (155) 
31

>  <r_i_glide_eff_state_penalty>  (155) 
0

>  <ligand_id>  (155) 
52

>  <original_smiles>  (155) 
CCC1(Cc2cn(C)cn2)C(=O)NC(=O)NC1=O

>  <smiles>  (155) 
[H]c1c(C([H])([H])C2(C([H])([H])C([H])([H])[H])C(=O)[N-]C(=O)N([H])C2=O)[n+]([H])c([H])n1C([H])([H])[H]

$$$$
52:4:2
     RDKit          3D

 32 33  0  0  1  0  0  0  0  0999 V2000
    3.8072   -1.9769    1.8931 C   0  0  0  0  0  0  0  0  0  0  0  0
    3.3240   -2.1676    0.4449 C   0  0  0  0  0  0  0  0  0  0  0  0
    3.9365   -3.3814   -0.3398 C   0  0  1  0  0  0  0  0  0  0  0  0
    3.4628   -3.4436   -1.8430 C   0  0  0  0  0  0  0  0  0  0  0  0
    3.4235   -2.1651   -2.6394 C   0  0  0  0  0  0  0  0  0  0  0  0
    2.6936   -1.8092   -3.7427 C   0  0  0  0  0  0  0  0  0  0  0  0
    3.0513   -0.5204   -4.0559 N   0  0  0  0  0  0  0  0  0  0  0  0
    2.5410    0.3187   -5.1378 C   0  0  0  0  0  0  0  0  0  0  0  0
    3.9695   -0.0833   -3.2035 C   0  0  0  0  0  0  0  0  0  0  0  0
    4.2209   -1.0886   -2.3724 N   0  0  0  0  0  0  0  0  0  0  0  0
    5.4996   -3.3031   -0.3231 C   0  0  0  0  0  0  0  0  0  0  0  0
    6.0686   -2.3271   -0.8108 O   0  0  0  0  0  0  0  0  0  0  0  0
    6.2304   -4.2728    0.2322 N   0  0  0  0  0  0  0  0  0  0  0  0
    5.7367   -5.3659    0.8215 C   0  0  0  0  0  0  0  0  0  0  0  0
    6.5620   -6.1438    1.2891 O   0  0  0  0  0  0  0  0  0  0  0  0
    4.3893   -5.5600    0.8749 N   0  0  0  0  0  0  0  0  0  0  0  0
    3.4536   -4.7033    0.3643 C   0  0  0  0  0  0  0  0  0  0  0  0
    2.2308   -4.8852    0.4293 O   0  0  0  0  0  0  0  0  0  0  0  0
    3.3371   -1.0903    2.3160 H   0  0  0  0  0  0  0  0  0  0  0  0
    4.8858   -1.8157    1.9464 H   0  0  0  0  0  0  0  0  0  0  0  0
    3.5560   -2.8269    2.5278 H   0  0  0  0  0  0  0  0  0  0  0  0
    2.2338   -2.2551    0.4441 H   0  0  0  0  0  0  0  0  0  0  0  0
    3.5219   -1.2113   -0.0270 H   0  0  0  0  0  0  0  0  0  0  0  0
    4.1066   -4.1340   -2.3930 H   0  0  0  0  0  0  0  0  0  0  0  0
    2.4523   -3.8596   -1.9110 H   0  0  0  0  0  0  0  0  0  0  0  0
    1.9390   -2.3556   -4.2946 H   0  0  0  0  0  0  0  0  0  0  0  0
    3.1042    1.2558   -5.2072 H   0  0  0  0  0  0  0  0  0  0  0  0
    1.4842    0.5337   -4.9633 H   0  0  0  0  0  0  0  0  0  0  0  0
    2.6591   -0.2413   -6.0640 H   0  0  0  0  0  0  0  0  0  0  0  0
    4.4051    0.8925   -3.1531 H   0  0  0  0  0  0  0  0  0  0  0  0
    7.2319   -4.1607    0.2214 H   0  0  0  0  0  0  0  0  0  0  0  0
    4.8742   -1.0609   -1.6020 H   0  0  0  0  0  0  0  0  0  0  0  0
  1  2  1  0
  1 19  1  0
  1 20  1  0
  1 21  1  0
  3  2  1  1
  2 22  1  0
  2 23  1  0
  3 17  1  0
  3  4  1  0
  3 11  1  0
  4  5  1  0
  4 24  1  0
  4 25  1  0
  5 10  1  0
  5  6  2  0
  6  7  1  0
  6 26  1  0
  7  8  1  0
  7  9  1  0
  8 27  1  0
  8 28  1  0
  8 29  1  0
  9 10  2  0
  9 30  1  0
 10 32  1  0
 11 12  2  0
 11 13  1  0
 13 14  1  0
 13 31  1  0
 14 15  2  0
 14 16  1  0
 16 17  1  0
 17 18  2  0
M  CHG  2  10   1  16  -1
M  END
>  <i_m_ct_stereo_status>  (156) 
1

>  <s_m_source_file>  (156) 
/var/tmp/pbs.5076255.sched01/tmpxs4nfypl/40fgi3imsd.sdf

>  <i_m_source_file_index>  (156) 
29

>  <i_lp_mmshare_version>  (156) 
48012

>  <i_f3d_flags>  (156) 
0

>  <s_epik_input>  (156) 
Tz1DMVtOSF1DKD1PKVtOSF1DKD1PKUMxKFtDSDJdW0NIM10pW0NIMl1jMltjSF1uKFtDSDNdKVtjSF1uMg==

>  <s_epik_cmdline>  (156) 
J2VwaWtfcHl0aG9uJywgJy1waHQnLCAnMi4wJywgJy1waCcsICc3LjAnLCAnLXRuJywgJzgnLCAnLW1hJywgJzIwMCcsICctaW1hZScsICc8aW5maWxlLm1hZT4nLCAnLW9tYWUnLCAnPG91dGZpbGUubWFlPic=

>  <r_epik_Ionization_Penalty>  (156) 
1.28041

>  <r_epik_Ionization_Penalty_Charging>  (156) 
0.826022

>  <r_epik_Ionization_Penalty_Neutral>  (156) 
0.45439

>  <r_epik_State_Penalty>  (156) 
1.57146

>  <r_epik_Charging_Adjusted_Penalty>  (156) 
2.39748

>  <i_epik_Tot_Q>  (156) 
0

>  <i_epik_Tot_abs_Q>  (156) 
2

>  <s_lp_Force_Field>  (156) 
OPLS3e

>  <r_lp_Energy>  (156) 
20.7469

>  <b_lp_Chiralities_Consistent>  (156) 
1

>  <s_lp_Variant>  (156) 
52:0-5

>  <s_i_glide_gridfile>  (156) 
pfpi4k_grid

>  <i_i_glide_lignum>  (156) 
29

>  <i_i_glide_rotatable_bonds>  (156) 
3

>  <r_i_docking_score>  (156) 
-4.53933

>  <r_i_glide_ligand_efficiency>  (156) 
-0.252185

>  <r_i_glide_ligand_efficiency_sa>  (156) 
-0.660911

>  <r_i_glide_ligand_efficiency_ln>  (156) 
-1.16681

>  <r_i_glide_gscore>  (156) 
-4.53933

>  <r_i_glide_lipo>  (156) 
-0.207614

>  <r_i_glide_hbond>  (156) 
-0.0159566

>  <r_i_glide_metal>  (156) 
-0

>  <r_i_glide_rewards>  (156) 
-2.92179

>  <r_i_glide_evdw>  (156) 
-21.2459

>  <r_i_glide_ecoul>  (156) 
-5.72514

>  <r_i_glide_erotb>  (156) 
0.559026

>  <r_i_glide_esite>  (156) 
-0.0319326

>  <r_i_glide_emodel>  (156) 
-40.9626

>  <r_i_glide_energy>  (156) 
-26.971

>  <r_i_glide_einternal>  (156) 
3.19779

>  <r_i_glide_intrahb_reward>  (156) 
-0.5

>  <i_i_glide_confnum>  (156) 
3

>  <i_i_glide_posenum>  (156) 
36

>  <r_i_glide_eff_state_penalty>  (156) 
0

>  <ligand_id>  (156) 
52

>  <original_smiles>  (156) 
CCC1(Cc2cn(C)cn2)C(=O)NC(=O)NC1=O

>  <smiles>  (156) 
[H]c1c(C([H])([H])C2(C([H])([H])C([H])([H])[H])C(=O)[N-]C(=O)N([H])C2=O)[n+]([H])c([H])n1C([H])([H])[H]

$$$$
52:5:0
     RDKit          3D

 32 33  0  0  1  0  0  0  0  0999 V2000
    5.6815   -4.8786    0.3718 C   0  0  0  0  0  0  0  0  0  0  0  0
    5.2390   -3.4564    0.7829 C   0  0  0  0  0  0  0  0  0  0  0  0
    4.7714   -2.5231   -0.3777 C   0  0  1  0  0  0  0  0  0  0  0  0
    4.3759   -1.0869    0.1142 C   0  0  0  0  0  0  0  0  0  0  0  0
    3.5878   -1.0099    1.3909 C   0  0  0  0  0  0  0  0  0  0  0  0
    3.9791   -1.1106    2.7044 C   0  0  0  0  0  0  0  0  0  0  0  0
    2.8587   -0.9524    3.4721 N   0  0  0  0  0  0  0  0  0  0  0  0
    2.7956   -0.9897    4.9366 C   0  0  0  0  0  0  0  0  0  0  0  0
    1.7938   -0.7495    2.6871 C   0  0  0  0  0  0  0  0  0  0  0  0
    2.2309   -0.7816    1.4247 N   0  0  0  0  0  0  0  0  0  0  0  0
    5.9615   -2.3544   -1.3809 C   0  0  0  0  0  0  0  0  0  0  0  0
    7.0060   -1.8670   -0.9394 O   0  0  0  0  0  0  0  0  0  0  0  0
    5.7761   -2.7493   -2.6732 N   0  0  0  0  0  0  0  0  0  0  0  0
    4.6370   -3.2937   -3.1674 C   0  0  0  0  0  0  0  0  0  0  0  0
    4.5091   -3.6676   -4.3229 O   0  0  0  0  0  0  0  0  0  0  0  0
    3.5666   -3.4549   -2.3814 N   0  0  0  0  0  0  0  0  0  0  0  0
    3.5334   -3.1489   -1.0778 C   0  0  0  0  0  0  0  0  0  0  0  0
    2.5353   -3.3925   -0.4104 O   0  0  0  0  0  0  0  0  0  0  0  0
    5.9864   -5.4496    1.2490 H   0  0  0  0  0  0  0  0  0  0  0  0
    6.5340   -4.8691   -0.3097 H   0  0  0  0  0  0  0  0  0  0  0  0
    4.8810   -5.4408   -0.1150 H   0  0  0  0  0  0  0  0  0  0  0  0
    4.4426   -3.5708    1.5147 H   0  0  0  0  0  0  0  0  0  0  0  0
    6.0720   -2.9813    1.3047 H   0  0  0  0  0  0  0  0  0  0  0  0
    5.2573   -0.4546    0.2592 H   0  0  0  0  0  0  0  0  0  0  0  0
    3.8036   -0.5874   -0.6711 H   0  0  0  0  0  0  0  0  0  0  0  0
    4.9529   -1.2928    3.1366 H   0  0  0  0  0  0  0  0  0  0  0  0
    1.8026   -0.7083    5.3030 H   0  0  0  0  0  0  0  0  0  0  0  0
    3.5348   -0.2923    5.3374 H   0  0  0  0  0  0  0  0  0  0  0  0
    3.0453   -1.9947    5.2881 H   0  0  0  0  0  0  0  0  0  0  0  0
    0.7802   -0.5966    3.0027 H   0  0  0  0  0  0  0  0  0  0  0  0
    2.7649   -3.9133   -2.7906 H   0  0  0  0  0  0  0  0  0  0  0  0
    1.6269   -0.6890    0.5991 H   0  0  0  0  0  0  0  0  0  0  0  0
  1  2  1  0
  1 19  1  0
  1 20  1  0
  1 21  1  0
  3  2  1  1
  2 22  1  0
  2 23  1  0
  3 17  1  0
  3  4  1  0
  3 11  1  0
  4  5  1  0
  4 24  1  0
  4 25  1  0
  5 10  1  0
  5  6  2  0
  6  7  1  0
  6 26  1  0
  7  8  1  0
  7  9  1  0
  8 27  1  0
  8 28  1  0
  8 29  1  0
  9 10  2  0
  9 30  1  0
 10 32  1  0
 11 12  2  0
 11 13  1  0
 13 14  1  0
 14 15  2  0
 14 16  1  0
 16 17  1  0
 16 31  1  0
 17 18  2  0
M  CHG  2  10   1  13  -1
M  END
>  <i_m_ct_stereo_status>  (157) 
1

>  <s_m_source_file>  (157) 
/var/tmp/pbs.5076255.sched01/tmpxs4nfypl/40fgi3imsd.sdf

>  <i_m_source_file_index>  (157) 
30

>  <i_lp_mmshare_version>  (157) 
48012

>  <i_f3d_flags>  (157) 
0

>  <s_epik_input>  (157) 
Tz1DMVtOSF1DKD1PKVtOSF1DKD1PKUMxKFtDSDJdW0NIM10pW0NIMl1jMltjSF1uKFtDSDNdKVtjSF1uMg==

>  <s_epik_cmdline>  (157) 
J2VwaWtfcHl0aG9uJywgJy1waHQnLCAnMi4wJywgJy1waCcsICc3LjAnLCAnLXRuJywgJzgnLCAnLW1hJywgJzIwMCcsICctaW1hZScsICc8aW5maWxlLm1hZT4nLCAnLW9tYWUnLCAnPG91dGZpbGUubWFlPic=

>  <r_epik_Ionization_Penalty>  (157) 
1.28041

>  <r_epik_Ionization_Penalty_Charging>  (157) 
0.826022

>  <r_epik_Ionization_Penalty_Neutral>  (157) 
0.45439

>  <r_epik_State_Penalty>  (157) 
1.57146

>  <r_epik_Charging_Adjusted_Penalty>  (157) 
2.39748

>  <i_epik_Tot_Q>  (157) 
0

>  <i_epik_Tot_abs_Q>  (157) 
2

>  <s_lp_Force_Field>  (157) 
OPLS3e

>  <r_lp_Energy>  (157) 
20.7594

>  <b_lp_Chiralities_Consistent>  (157) 
1

>  <s_lp_Variant>  (157) 
52:0-6

>  <s_i_glide_gridfile>  (157) 
pfpi4k_grid

>  <i_i_glide_lignum>  (157) 
30

>  <i_i_glide_rotatable_bonds>  (157) 
3

>  <r_i_docking_score>  (157) 
-5.16469

>  <r_i_glide_ligand_efficiency>  (157) 
-0.286927

>  <r_i_glide_ligand_efficiency_sa>  (157) 
-0.751962

>  <r_i_glide_ligand_efficiency_ln>  (157) 
-1.32756

>  <r_i_glide_gscore>  (157) 
-5.16469

>  <r_i_glide_lipo>  (157) 
-0.153245

>  <r_i_glide_hbond>  (157) 
-0.470787

>  <r_i_glide_metal>  (157) 
-0

>  <r_i_glide_rewards>  (157) 
-1.9378

>  <r_i_glide_evdw>  (157) 
-17.6905

>  <r_i_glide_ecoul>  (157) 
-13.9885

>  <r_i_glide_erotb>  (157) 
0.559026

>  <r_i_glide_esite>  (157) 
-0.179086

>  <r_i_glide_emodel>  (157) 
-44.8857

>  <r_i_glide_energy>  (157) 
-31.679

>  <r_i_glide_einternal>  (157) 
0.263598

>  <r_i_glide_intrahb_reward>  (157) 
-0

>  <i_i_glide_confnum>  (157) 
4

>  <i_i_glide_posenum>  (157) 
33

>  <r_i_glide_eff_state_penalty>  (157) 
0

>  <ligand_id>  (157) 
52

>  <original_smiles>  (157) 
CCC1(Cc2cn(C)cn2)C(=O)NC(=O)NC1=O

>  <smiles>  (157) 
[H]c1c(C([H])([H])C2(C([H])([H])C([H])([H])[H])C(=O)[N-]C(=O)N([H])C2=O)[n+]([H])c([H])n1C([H])([H])[H]

$$$$
52:5:1
     RDKit          3D

 32 33  0  0  1  0  0  0  0  0999 V2000
    7.2947   -4.2437    0.9503 C   0  0  0  0  0  0  0  0  0  0  0  0
    5.8870   -3.8550    1.4506 C   0  0  0  0  0  0  0  0  0  0  0  0
    4.9557   -3.0494    0.4772 C   0  0  1  0  0  0  0  0  0  0  0  0
    4.8105   -3.7460   -0.9242 C   0  0  0  0  0  0  0  0  0  0  0  0
    4.0809   -2.9507   -1.9822 C   0  0  0  0  0  0  0  0  0  0  0  0
    4.3193   -1.7178   -2.5439 C   0  0  0  0  0  0  0  0  0  0  0  0
    3.3697   -1.5110   -3.5029 N   0  0  0  0  0  0  0  0  0  0  0  0
    3.2445   -0.3157   -4.3481 C   0  0  0  0  0  0  0  0  0  0  0  0
    2.5474   -2.5589   -3.5512 C   0  0  0  0  0  0  0  0  0  0  0  0
    2.9827   -3.4405   -2.6439 N   0  0  0  0  0  0  0  0  0  0  0  0
    3.5305   -3.0036    1.1315 C   0  0  0  0  0  0  0  0  0  0  0  0
    2.9711   -4.0913    1.3158 O   0  0  0  0  0  0  0  0  0  0  0  0
    2.9925   -1.7896    1.4430 N   0  0  0  0  0  0  0  0  0  0  0  0
    3.5892   -0.5888    1.2065 C   0  0  0  0  0  0  0  0  0  0  0  0
    3.0681    0.4943    1.4450 O   0  0  0  0  0  0  0  0  0  0  0  0
    4.8192   -0.5467    0.6768 N   0  0  0  0  0  0  0  0  0  0  0  0
    5.5334   -1.6132    0.3118 C   0  0  0  0  0  0  0  0  0  0  0  0
    6.6175   -1.4582   -0.2451 O   0  0  0  0  0  0  0  0  0  0  0  0
    7.8429   -4.7728    1.7299 H   0  0  0  0  0  0  0  0  0  0  0  0
    7.9037   -3.3813    0.6819 H   0  0  0  0  0  0  0  0  0  0  0  0
    7.2443   -4.9099    0.0907 H   0  0  0  0  0  0  0  0  0  0  0  0
    5.3966   -4.7699    1.7962 H   0  0  0  0  0  0  0  0  0  0  0  0
    6.0206   -3.2571    2.3535 H   0  0  0  0  0  0  0  0  0  0  0  0
    5.7888   -3.9807   -1.3424 H   0  0  0  0  0  0  0  0  0  0  0  0
    4.3076   -4.7117   -0.8085 H   0  0  0  0  0  0  0  0  0  0  0  0
    5.0703   -0.9680   -2.3379 H   0  0  0  0  0  0  0  0  0  0  0  0
    2.4685   -0.4428   -5.1101 H   0  0  0  0  0  0  0  0  0  0  0  0
    4.2058   -0.1153   -4.8282 H   0  0  0  0  0  0  0  0  0  0  0  0
    2.9964    0.5306   -3.7080 H   0  0  0  0  0  0  0  0  0  0  0  0
    1.7011   -2.6754   -4.2022 H   0  0  0  0  0  0  0  0  0  0  0  0
    5.2086    0.3655    0.4858 H   0  0  0  0  0  0  0  0  0  0  0  0
    2.5881   -4.3688   -2.5008 H   0  0  0  0  0  0  0  0  0  0  0  0
  1  2  1  0
  1 19  1  0
  1 20  1  0
  1 21  1  0
  3  2  1  1
  2 22  1  0
  2 23  1  0
  3 17  1  0
  3  4  1  0
  3 11  1  0
  4  5  1  0
  4 24  1  0
  4 25  1  0
  5 10  1  0
  5  6  2  0
  6  7  1  0
  6 26  1  0
  7  8  1  0
  7  9  1  0
  8 27  1  0
  8 28  1  0
  8 29  1  0
  9 10  2  0
  9 30  1  0
 10 32  1  0
 11 12  2  0
 11 13  1  0
 13 14  1  0
 14 15  2  0
 14 16  1  0
 16 17  1  0
 16 31  1  0
 17 18  2  0
M  CHG  2  10   1  13  -1
M  END
>  <i_m_ct_stereo_status>  (158) 
1

>  <s_m_source_file>  (158) 
/var/tmp/pbs.5076255.sched01/tmpxs4nfypl/40fgi3imsd.sdf

>  <i_m_source_file_index>  (158) 
30

>  <i_lp_mmshare_version>  (158) 
48012

>  <i_f3d_flags>  (158) 
0

>  <s_epik_input>  (158) 
Tz1DMVtOSF1DKD1PKVtOSF1DKD1PKUMxKFtDSDJdW0NIM10pW0NIMl1jMltjSF1uKFtDSDNdKVtjSF1uMg==

>  <s_epik_cmdline>  (158) 
J2VwaWtfcHl0aG9uJywgJy1waHQnLCAnMi4wJywgJy1waCcsICc3LjAnLCAnLXRuJywgJzgnLCAnLW1hJywgJzIwMCcsICctaW1hZScsICc8aW5maWxlLm1hZT4nLCAnLW9tYWUnLCAnPG91dGZpbGUubWFlPic=

>  <r_epik_Ionization_Penalty>  (158) 
1.28041

>  <r_epik_Ionization_Penalty_Charging>  (158) 
0.826022

>  <r_epik_Ionization_Penalty_Neutral>  (158) 
0.45439

>  <r_epik_State_Penalty>  (158) 
1.57146

>  <r_epik_Charging_Adjusted_Penalty>  (158) 
2.39748

>  <i_epik_Tot_Q>  (158) 
0

>  <i_epik_Tot_abs_Q>  (158) 
2

>  <s_lp_Force_Field>  (158) 
OPLS3e

>  <r_lp_Energy>  (158) 
20.7594

>  <b_lp_Chiralities_Consistent>  (158) 
1

>  <s_lp_Variant>  (158) 
52:0-6

>  <s_i_glide_gridfile>  (158) 
pfpi4k_grid

>  <i_i_glide_lignum>  (158) 
30

>  <i_i_glide_rotatable_bonds>  (158) 
3

>  <r_i_docking_score>  (158) 
-4.84016

>  <r_i_glide_ligand_efficiency>  (158) 
-0.268898

>  <r_i_glide_ligand_efficiency_sa>  (158) 
-0.704711

>  <r_i_glide_ligand_efficiency_ln>  (158) 
-1.24414

>  <r_i_glide_gscore>  (158) 
-4.84016

>  <r_i_glide_lipo>  (158) 
-0.567147

>  <r_i_glide_hbond>  (158) 
-0.216369

>  <r_i_glide_metal>  (158) 
-0

>  <r_i_glide_rewards>  (158) 
-2.38313

>  <r_i_glide_evdw>  (158) 
-25.6015

>  <r_i_glide_ecoul>  (158) 
-6.08913

>  <r_i_glide_erotb>  (158) 
0.559026

>  <r_i_glide_esite>  (158) 
-0.0390897

>  <r_i_glide_emodel>  (158) 
-41.6224

>  <r_i_glide_energy>  (158) 
-31.6906

>  <r_i_glide_einternal>  (158) 
4.39454

>  <r_i_glide_intrahb_reward>  (158) 
-0

>  <i_i_glide_confnum>  (158) 
2

>  <i_i_glide_posenum>  (158) 
11

>  <r_i_glide_eff_state_penalty>  (158) 
0

>  <ligand_id>  (158) 
52

>  <original_smiles>  (158) 
CCC1(Cc2cn(C)cn2)C(=O)NC(=O)NC1=O

>  <smiles>  (158) 
[H]c1c(C([H])([H])C2(C([H])([H])C([H])([H])[H])C(=O)[N-]C(=O)N([H])C2=O)[n+]([H])c([H])n1C([H])([H])[H]

$$$$
52:5:2
     RDKit          3D

 32 33  0  0  1  0  0  0  0  0999 V2000
    6.1571   -4.1908    2.0275 C   0  0  0  0  0  0  0  0  0  0  0  0
    6.0163   -4.4557    0.5125 C   0  0  0  0  0  0  0  0  0  0  0  0
    5.1259   -3.4321   -0.2742 C   0  0  1  0  0  0  0  0  0  0  0  0
    4.9981   -3.8713   -1.7743 C   0  0  0  0  0  0  0  0  0  0  0  0
    4.0933   -3.0177   -2.6283 C   0  0  0  0  0  0  0  0  0  0  0  0
    4.2288   -1.7530   -3.1382 C   0  0  0  0  0  0  0  0  0  0  0  0
    3.1150   -1.4861   -3.8811 N   0  0  0  0  0  0  0  0  0  0  0  0
    2.8347   -0.2461   -4.6214 C   0  0  0  0  0  0  0  0  0  0  0  0
    2.2898   -2.5334   -3.8292 C   0  0  0  0  0  0  0  0  0  0  0  0
    2.8729   -3.4635   -3.0661 N   0  0  0  0  0  0  0  0  0  0  0  0
    3.6946   -3.4047    0.3645 C   0  0  0  0  0  0  0  0  0  0  0  0
    3.0751   -4.4755    0.3518 O   0  0  0  0  0  0  0  0  0  0  0  0
    3.2337   -2.2266    0.8831 N   0  0  0  0  0  0  0  0  0  0  0  0
    3.9179   -1.0452    0.8544 C   0  0  0  0  0  0  0  0  0  0  0  0
    3.4825    0.0122    1.3010 O   0  0  0  0  0  0  0  0  0  0  0  0
    5.1474   -0.9963    0.3175 N   0  0  0  0  0  0  0  0  0  0  0  0
    5.7955   -2.0337   -0.2258 C   0  0  0  0  0  0  0  0  0  0  0  0
    6.9156   -1.8954   -0.7230 O   0  0  0  0  0  0  0  0  0  0  0  0
    6.7933   -4.9385    2.5004 H   0  0  0  0  0  0  0  0  0  0  0  0
    5.1993   -4.2251    2.5503 H   0  0  0  0  0  0  0  0  0  0  0  0
    6.5937   -3.2108    2.2201 H   0  0  0  0  0  0  0  0  0  0  0  0
    7.0194   -4.4814    0.0878 H   0  0  0  0  0  0  0  0  0  0  0  0
    5.6300   -5.4699    0.3838 H   0  0  0  0  0  0  0  0  0  0  0  0
    5.9763   -3.8693   -2.2613 H   0  0  0  0  0  0  0  0  0  0  0  0
    4.6375   -4.9030   -1.8256 H   0  0  0  0  0  0  0  0  0  0  0  0
    5.0045   -1.0243   -3.0255 H   0  0  0  0  0  0  0  0  0  0  0  0
    1.9014   -0.2928   -5.1930 H   0  0  0  0  0  0  0  0  0  0  0  0
    3.6707   -0.0293   -5.2890 H   0  0  0  0  0  0  0  0  0  0  0  0
    2.7463    0.5541   -3.8969 H   0  0  0  0  0  0  0  0  0  0  0  0
    1.3314   -2.6227   -4.3075 H   0  0  0  0  0  0  0  0  0  0  0  0
    5.6172   -0.1008    0.3271 H   0  0  0  0  0  0  0  0  0  0  0  0
    2.4767   -4.3736   -2.8468 H   0  0  0  0  0  0  0  0  0  0  0  0
  1  2  1  0
  1 19  1  0
  1 20  1  0
  1 21  1  0
  3  2  1  1
  2 22  1  0
  2 23  1  0
  3 17  1  0
  3  4  1  0
  3 11  1  0
  4  5  1  0
  4 24  1  0
  4 25  1  0
  5 10  1  0
  5  6  2  0
  6  7  1  0
  6 26  1  0
  7  8  1  0
  7  9  1  0
  8 27  1  0
  8 28  1  0
  8 29  1  0
  9 10  2  0
  9 30  1  0
 10 32  1  0
 11 12  2  0
 11 13  1  0
 13 14  1  0
 14 15  2  0
 14 16  1  0
 16 17  1  0
 16 31  1  0
 17 18  2  0
M  CHG  2  10   1  13  -1
M  END
>  <i_m_ct_stereo_status>  (159) 
1

>  <s_m_source_file>  (159) 
/var/tmp/pbs.5076255.sched01/tmpxs4nfypl/40fgi3imsd.sdf

>  <i_m_source_file_index>  (159) 
30

>  <i_lp_mmshare_version>  (159) 
48012

>  <i_f3d_flags>  (159) 
0

>  <s_epik_input>  (159) 
Tz1DMVtOSF1DKD1PKVtOSF1DKD1PKUMxKFtDSDJdW0NIM10pW0NIMl1jMltjSF1uKFtDSDNdKVtjSF1uMg==

>  <s_epik_cmdline>  (159) 
J2VwaWtfcHl0aG9uJywgJy1waHQnLCAnMi4wJywgJy1waCcsICc3LjAnLCAnLXRuJywgJzgnLCAnLW1hJywgJzIwMCcsICctaW1hZScsICc8aW5maWxlLm1hZT4nLCAnLW9tYWUnLCAnPG91dGZpbGUubWFlPic=

>  <r_epik_Ionization_Penalty>  (159) 
1.28041

>  <r_epik_Ionization_Penalty_Charging>  (159) 
0.826022

>  <r_epik_Ionization_Penalty_Neutral>  (159) 
0.45439

>  <r_epik_State_Penalty>  (159) 
1.57146

>  <r_epik_Charging_Adjusted_Penalty>  (159) 
2.39748

>  <i_epik_Tot_Q>  (159) 
0

>  <i_epik_Tot_abs_Q>  (159) 
2

>  <s_lp_Force_Field>  (159) 
OPLS3e

>  <r_lp_Energy>  (159) 
20.7594

>  <b_lp_Chiralities_Consistent>  (159) 
1

>  <s_lp_Variant>  (159) 
52:0-6

>  <s_i_glide_gridfile>  (159) 
pfpi4k_grid

>  <i_i_glide_lignum>  (159) 
30

>  <i_i_glide_rotatable_bonds>  (159) 
3

>  <r_i_docking_score>  (159) 
-4.49663

>  <r_i_glide_ligand_efficiency>  (159) 
-0.249813

>  <r_i_glide_ligand_efficiency_sa>  (159) 
-0.654695

>  <r_i_glide_ligand_efficiency_ln>  (159) 
-1.15584

>  <r_i_glide_gscore>  (159) 
-4.49663

>  <r_i_glide_lipo>  (159) 
-0.492191

>  <r_i_glide_hbond>  (159) 
-0.16

>  <r_i_glide_metal>  (159) 
-0

>  <r_i_glide_rewards>  (159) 
-2.18078

>  <r_i_glide_evdw>  (159) 
-23.6544

>  <r_i_glide_ecoul>  (159) 
-6.75916

>  <r_i_glide_erotb>  (159) 
0.559026

>  <r_i_glide_esite>  (159) 
-0.0260942

>  <r_i_glide_emodel>  (159) 
-41.5437

>  <r_i_glide_energy>  (159) 
-30.4136

>  <r_i_glide_einternal>  (159) 
0.801319

>  <r_i_glide_intrahb_reward>  (159) 
-0

>  <i_i_glide_confnum>  (159) 
2

>  <i_i_glide_posenum>  (159) 
22

>  <r_i_glide_eff_state_penalty>  (159) 
0

>  <ligand_id>  (159) 
52

>  <original_smiles>  (159) 
CCC1(Cc2cn(C)cn2)C(=O)NC(=O)NC1=O

>  <smiles>  (159) 
[H]c1c(C([H])([H])C2(C([H])([H])C([H])([H])[H])C(=O)[N-]C(=O)N([H])C2=O)[n+]([H])c([H])n1C([H])([H])[H]

$$$$
54:0:0
     RDKit          3D

 19 19  0  0  1  0  0  0  0  0999 V2000
   -6.9446   -4.2985   -4.3262 C   0  0  0  0  0  0  0  0  0  0  0  0
   -6.4468   -5.6940   -4.6481 C   0  0  0  0  0  0  0  0  0  0  0  0
   -6.7795   -6.4745   -5.7094 C   0  0  0  0  0  0  0  0  0  0  0  0
   -7.7779   -6.0250   -6.8723 C   0  0  0  0  0  0  0  0  0  0  0  0
   -8.2994   -4.8905   -6.7836 O   0  0  0  0  0  0  0  0  0  0  0  0
   -7.9438   -6.8026   -7.8381 O   0  0  0  0  0  0  0  0  0  0  0  0
   -6.1372   -7.8179   -5.8590 C   0  0  0  0  0  0  0  0  0  0  0  0
   -6.8031   -8.9540   -6.3906 C   0  0  0  0  0  0  0  0  0  0  0  0
   -6.1104  -10.1737   -6.4463 C   0  0  0  0  0  0  0  0  0  0  0  0
   -4.8143  -10.2020   -5.9132 C   0  0  0  0  0  0  0  0  0  0  0  0
   -4.2233   -9.1120   -5.3911 N   0  0  0  0  0  0  0  0  0  0  0  0
   -4.8722   -7.9443   -5.3750 N   0  0  0  0  0  0  0  0  0  0  0  0
   -6.5134   -3.9244   -3.3995 H   0  0  0  0  0  0  0  0  0  0  0  0
   -8.0247   -4.2885   -4.2189 H   0  0  0  0  0  0  0  0  0  0  0  0
   -6.6846   -3.5991   -5.1159 H   0  0  0  0  0  0  0  0  0  0  0  0
   -5.7389   -6.0751   -3.9281 H   0  0  0  0  0  0  0  0  0  0  0  0
   -7.8141   -8.8996   -6.7568 H   0  0  0  0  0  0  0  0  0  0  0  0
   -6.5644  -11.0691   -6.8471 H   0  0  0  0  0  0  0  0  0  0  0  0
   -4.2385  -11.1118   -5.9034 H   0  0  0  0  0  0  0  0  0  0  0  0
  1  2  1  0
  1 13  1  0
  1 14  1  0
  1 15  1  0
  2  3  2  3
  2 16  1  0
  3  4  1  0
  3  7  1  0
  4  5  2  0
  4  6  1  0
  7 12  2  0
  7  8  1  0
  8  9  2  0
  8 17  1  0
  9 10  1  0
  9 18  1  0
 10 11  2  0
 10 19  1  0
 11 12  1  0
M  CHG  1   6  -1
M  END
>  <i_m_ct_stereo_status>  (160) 
1

>  <s_m_source_file>  (160) 
/var/tmp/pbs.5076255.sched01/tmpxs4nfypl/40fgi3imsd.sdf

>  <i_m_source_file_index>  (160) 
39

>  <i_lp_mmshare_version>  (160) 
48012

>  <i_f3d_flags>  (160) 
0

>  <s_epik_input>  (160) 
W0NIM10vW0NIXT1DKFxDKD1PKVtPSF0pYzFbY0hdW2NIXVtjSF1ubjE=

>  <s_epik_cmdline>  (160) 
J2VwaWtfcHl0aG9uJywgJy1waHQnLCAnMi4wJywgJy1waCcsICc3LjAnLCAnLXRuJywgJzgnLCAnLW1hJywgJzIwMCcsICctaW1hZScsICc8aW5maWxlLm1hZT4nLCAnLW9tYWUnLCAnPG91dGZpbGUubWFlPic=

>  <r_epik_Ionization_Penalty>  (160) 
0.000579229

>  <r_epik_Ionization_Penalty_Charging>  (160) 
0.000550144

>  <r_epik_Ionization_Penalty_Neutral>  (160) 
2.9085e-05

>  <r_epik_State_Penalty>  (160) 
0.00034448

>  <r_epik_Charging_Adjusted_Penalty>  (160) 
0.000894624

>  <i_epik_Tot_Q>  (160) 
-1

>  <i_epik_Tot_abs_Q>  (160) 
1

>  <s_lp_Force_Field>  (160) 
OPLS3e

>  <r_lp_Energy>  (160) 
34.0297

>  <b_lp_Chiralities_Consistent>  (160) 
1

>  <s_lp_Variant>  (160) 
54:0-1

>  <s_i_glide_gridfile>  (160) 
pfpi4k_grid

>  <i_i_glide_lignum>  (160) 
39

>  <i_i_glide_rotatable_bonds>  (160) 
2

>  <r_i_docking_score>  (160) 
-5.07601

>  <r_i_glide_ligand_efficiency>  (160) 
-0.423

>  <r_i_glide_ligand_efficiency_sa>  (160) 
-0.968429

>  <r_i_glide_ligand_efficiency_ln>  (160) 
-1.45657

>  <r_i_glide_gscore>  (160) 
-5.07601

>  <r_i_glide_lipo>  (160) 
-1.73477

>  <r_i_glide_hbond>  (160) 
0

>  <r_i_glide_metal>  (160) 
-0

>  <r_i_glide_rewards>  (160) 
-3.03875

>  <r_i_glide_evdw>  (160) 
-19.5892

>  <r_i_glide_ecoul>  (160) 
0.708912

>  <r_i_glide_erotb>  (160) 
0.570638

>  <r_i_glide_esite>  (160) 
0

>  <r_i_glide_emodel>  (160) 
-28.0549

>  <r_i_glide_energy>  (160) 
-18.8802

>  <r_i_glide_einternal>  (160) 
0.256858

>  <r_i_glide_intrahb_reward>  (160) 
-0

>  <i_i_glide_confnum>  (160) 
2

>  <i_i_glide_posenum>  (160) 
13

>  <r_i_glide_eff_state_penalty>  (160) 
0

>  <ligand_id>  (160) 
54

>  <original_smiles>  (160) 
CC=C(C(=O)O)c1cccnn1

>  <smiles>  (160) 
[H]C(=C(C(=O)[O-])c1nnc([H])c([H])c1[H])C([H])([H])[H]

$$$$
54:0:1
     RDKit          3D

 19 19  0  0  1  0  0  0  0  0999 V2000
   -6.2716   -4.4067   -4.5461 C   0  0  0  0  0  0  0  0  0  0  0  0
   -7.0058   -5.1801   -5.6289 C   0  0  0  0  0  0  0  0  0  0  0  0
   -6.6960   -6.4066   -6.1296 C   0  0  0  0  0  0  0  0  0  0  0  0
   -5.4166   -7.2472   -5.6672 C   0  0  0  0  0  0  0  0  0  0  0  0
   -4.5872   -6.6621   -4.9422 O   0  0  0  0  0  0  0  0  0  0  0  0
   -5.2743   -8.4167   -6.0864 O   0  0  0  0  0  0  0  0  0  0  0  0
   -7.5421   -6.9884   -7.2264 C   0  0  0  0  0  0  0  0  0  0  0  0
   -7.7804   -8.3762   -7.4075 C   0  0  0  0  0  0  0  0  0  0  0  0
   -8.6156   -8.7881   -8.4618 C   0  0  0  0  0  0  0  0  0  0  0  0
   -9.2045   -7.7847   -9.2464 C   0  0  0  0  0  0  0  0  0  0  0  0
   -8.9817   -6.4750   -9.0353 N   0  0  0  0  0  0  0  0  0  0  0  0
   -8.1714   -6.0948   -8.0415 N   0  0  0  0  0  0  0  0  0  0  0  0
   -6.7579   -3.4565   -4.3377 H   0  0  0  0  0  0  0  0  0  0  0  0
   -5.2461   -4.1891   -4.8344 H   0  0  0  0  0  0  0  0  0  0  0  0
   -6.2410   -4.9762   -3.6224 H   0  0  0  0  0  0  0  0  0  0  0  0
   -7.8643   -4.6591   -6.0248 H   0  0  0  0  0  0  0  0  0  0  0  0
   -7.3579   -9.1301   -6.7678 H   0  0  0  0  0  0  0  0  0  0  0  0
   -8.8218   -9.8337   -8.6440 H   0  0  0  0  0  0  0  0  0  0  0  0
   -9.8718   -8.0396  -10.0536 H   0  0  0  0  0  0  0  0  0  0  0  0
  1  2  1  0
  1 13  1  0
  1 14  1  0
  1 15  1  0
  2  3  2  3
  2 16  1  0
  3  4  1  0
  3  7  1  0
  4  5  2  0
  4  6  1  0
  7 12  2  0
  7  8  1  0
  8  9  2  0
  8 17  1  0
  9 10  1  0
  9 18  1  0
 10 11  2  0
 10 19  1  0
 11 12  1  0
M  CHG  1   6  -1
M  END
>  <i_m_ct_stereo_status>  (161) 
1

>  <s_m_source_file>  (161) 
/var/tmp/pbs.5076255.sched01/tmpxs4nfypl/40fgi3imsd.sdf

>  <i_m_source_file_index>  (161) 
39

>  <i_lp_mmshare_version>  (161) 
48012

>  <i_f3d_flags>  (161) 
0

>  <s_epik_input>  (161) 
W0NIM10vW0NIXT1DKFxDKD1PKVtPSF0pYzFbY0hdW2NIXVtjSF1ubjE=

>  <s_epik_cmdline>  (161) 
J2VwaWtfcHl0aG9uJywgJy1waHQnLCAnMi4wJywgJy1waCcsICc3LjAnLCAnLXRuJywgJzgnLCAnLW1hJywgJzIwMCcsICctaW1hZScsICc8aW5maWxlLm1hZT4nLCAnLW9tYWUnLCAnPG91dGZpbGUubWFlPic=

>  <r_epik_Ionization_Penalty>  (161) 
0.000579229

>  <r_epik_Ionization_Penalty_Charging>  (161) 
0.000550144

>  <r_epik_Ionization_Penalty_Neutral>  (161) 
2.9085e-05

>  <r_epik_State_Penalty>  (161) 
0.00034448

>  <r_epik_Charging_Adjusted_Penalty>  (161) 
0.000894624

>  <i_epik_Tot_Q>  (161) 
-1

>  <i_epik_Tot_abs_Q>  (161) 
1

>  <s_lp_Force_Field>  (161) 
OPLS3e

>  <r_lp_Energy>  (161) 
34.0297

>  <b_lp_Chiralities_Consistent>  (161) 
1

>  <s_lp_Variant>  (161) 
54:0-1

>  <s_i_glide_gridfile>  (161) 
pfpi4k_grid

>  <i_i_glide_lignum>  (161) 
39

>  <i_i_glide_rotatable_bonds>  (161) 
2

>  <r_i_docking_score>  (161) 
-4.99517

>  <r_i_glide_ligand_efficiency>  (161) 
-0.416264

>  <r_i_glide_ligand_efficiency_sa>  (161) 
-0.953007

>  <r_i_glide_ligand_efficiency_ln>  (161) 
-1.43337

>  <r_i_glide_gscore>  (161) 
-4.99517

>  <r_i_glide_lipo>  (161) 
-1.32861

>  <r_i_glide_hbond>  (161) 
-0.16

>  <r_i_glide_metal>  (161) 
-0

>  <r_i_glide_rewards>  (161) 
-2.9119

>  <r_i_glide_evdw>  (161) 
-16.2338

>  <r_i_glide_ecoul>  (161) 
-2.3574

>  <r_i_glide_erotb>  (161) 
0.570638

>  <r_i_glide_esite>  (161) 
0

>  <r_i_glide_emodel>  (161) 
-27.3729

>  <r_i_glide_energy>  (161) 
-18.5912

>  <r_i_glide_einternal>  (161) 
0.470024

>  <r_i_glide_intrahb_reward>  (161) 
-0

>  <i_i_glide_confnum>  (161) 
1

>  <i_i_glide_posenum>  (161) 
18

>  <r_i_glide_eff_state_penalty>  (161) 
0

>  <ligand_id>  (161) 
54

>  <original_smiles>  (161) 
CC=C(C(=O)O)c1cccnn1

>  <smiles>  (161) 
[H]C(=C(C(=O)[O-])c1nnc([H])c([H])c1[H])C([H])([H])[H]

$$$$
54:0:2
     RDKit          3D

 19 19  0  0  1  0  0  0  0  0999 V2000
   -7.2045   -4.7142   -4.7039 C   0  0  0  0  0  0  0  0  0  0  0  0
   -7.2265   -5.9580   -5.5808 C   0  0  0  0  0  0  0  0  0  0  0  0
   -7.8126   -6.1082   -6.7957 C   0  0  0  0  0  0  0  0  0  0  0  0
   -8.5885   -4.9448   -7.5591 C   0  0  0  0  0  0  0  0  0  0  0  0
   -8.9174   -5.1475   -8.7450 O   0  0  0  0  0  0  0  0  0  0  0  0
   -8.8008   -3.8782   -6.9433 O   0  0  0  0  0  0  0  0  0  0  0  0
   -7.6847   -7.4105   -7.5258 C   0  0  0  0  0  0  0  0  0  0  0  0
   -8.7252   -7.9644   -8.3177 C   0  0  0  0  0  0  0  0  0  0  0  0
   -8.5190   -9.2175   -8.9219 C   0  0  0  0  0  0  0  0  0  0  0  0
   -7.2974   -9.8606   -8.6649 C   0  0  0  0  0  0  0  0  0  0  0  0
   -6.3381   -9.3149   -7.8950 N   0  0  0  0  0  0  0  0  0  0  0  0
   -6.5340   -8.1134   -7.3392 N   0  0  0  0  0  0  0  0  0  0  0  0
   -6.6699   -4.9034   -3.7757 H   0  0  0  0  0  0  0  0  0  0  0  0
   -8.2125   -4.4026   -4.4453 H   0  0  0  0  0  0  0  0  0  0  0  0
   -6.7177   -3.8835   -5.2085 H   0  0  0  0  0  0  0  0  0  0  0  0
   -6.6991   -6.7980   -5.1579 H   0  0  0  0  0  0  0  0  0  0  0  0
   -9.6551   -7.4451   -8.4729 H   0  0  0  0  0  0  0  0  0  0  0  0
   -9.2710   -9.6899   -9.5376 H   0  0  0  0  0  0  0  0  0  0  0  0
   -7.0827  -10.8316   -9.0876 H   0  0  0  0  0  0  0  0  0  0  0  0
  1  2  1  0
  1 13  1  0
  1 14  1  0
  1 15  1  0
  2  3  2  3
  2 16  1  0
  3  4  1  0
  3  7  1  0
  4  5  2  0
  4  6  1  0
  7 12  2  0
  7  8  1  0
  8  9  2  0
  8 17  1  0
  9 10  1  0
  9 18  1  0
 10 11  2  0
 10 19  1  0
 11 12  1  0
M  CHG  1   6  -1
M  END
>  <i_m_ct_stereo_status>  (162) 
1

>  <s_m_source_file>  (162) 
/var/tmp/pbs.5076255.sched01/tmpxs4nfypl/40fgi3imsd.sdf

>  <i_m_source_file_index>  (162) 
39

>  <i_lp_mmshare_version>  (162) 
48012

>  <i_f3d_flags>  (162) 
0

>  <s_epik_input>  (162) 
W0NIM10vW0NIXT1DKFxDKD1PKVtPSF0pYzFbY0hdW2NIXVtjSF1ubjE=

>  <s_epik_cmdline>  (162) 
J2VwaWtfcHl0aG9uJywgJy1waHQnLCAnMi4wJywgJy1waCcsICc3LjAnLCAnLXRuJywgJzgnLCAnLW1hJywgJzIwMCcsICctaW1hZScsICc8aW5maWxlLm1hZT4nLCAnLW9tYWUnLCAnPG91dGZpbGUubWFlPic=

>  <r_epik_Ionization_Penalty>  (162) 
0.000579229

>  <r_epik_Ionization_Penalty_Charging>  (162) 
0.000550144

>  <r_epik_Ionization_Penalty_Neutral>  (162) 
2.9085e-05

>  <r_epik_State_Penalty>  (162) 
0.00034448

>  <r_epik_Charging_Adjusted_Penalty>  (162) 
0.000894624

>  <i_epik_Tot_Q>  (162) 
-1

>  <i_epik_Tot_abs_Q>  (162) 
1

>  <s_lp_Force_Field>  (162) 
OPLS3e

>  <r_lp_Energy>  (162) 
34.0297

>  <b_lp_Chiralities_Consistent>  (162) 
1

>  <s_lp_Variant>  (162) 
54:0-1

>  <s_i_glide_gridfile>  (162) 
pfpi4k_grid

>  <i_i_glide_lignum>  (162) 
39

>  <i_i_glide_rotatable_bonds>  (162) 
2

>  <r_i_docking_score>  (162) 
-4.61234

>  <r_i_glide_ligand_efficiency>  (162) 
-0.384362

>  <r_i_glide_ligand_efficiency_sa>  (162) 
-0.879969

>  <r_i_glide_ligand_efficiency_ln>  (162) 
-1.32352

>  <r_i_glide_gscore>  (162) 
-4.61234

>  <r_i_glide_lipo>  (162) 
-1.29991

>  <r_i_glide_hbond>  (162) 
0

>  <r_i_glide_metal>  (162) 
-0

>  <r_i_glide_rewards>  (162) 
-2.89561

>  <r_i_glide_evdw>  (162) 
-16.4805

>  <r_i_glide_ecoul>  (162) 
-1.08951

>  <r_i_glide_erotb>  (162) 
0.570638

>  <r_i_glide_esite>  (162) 
0

>  <r_i_glide_emodel>  (162) 
-26.0147

>  <r_i_glide_energy>  (162) 
-17.5701

>  <r_i_glide_einternal>  (162) 
0.448501

>  <r_i_glide_intrahb_reward>  (162) 
-0

>  <i_i_glide_confnum>  (162) 
3

>  <i_i_glide_posenum>  (162) 
5

>  <r_i_glide_eff_state_penalty>  (162) 
0

>  <ligand_id>  (162) 
54

>  <original_smiles>  (162) 
CC=C(C(=O)O)c1cccnn1

>  <smiles>  (162) 
[H]C(=C(C(=O)[O-])c1nnc([H])c([H])c1[H])C([H])([H])[H]

$$$$
54:1:0
     RDKit          3D

 19 19  0  0  1  0  0  0  0  0999 V2000
   -8.0127   -4.4609   -4.9820 C   0  0  0  0  0  0  0  0  0  0  0  0
   -6.8908   -5.4846   -5.0974 C   0  0  0  0  0  0  0  0  0  0  0  0
   -6.7330   -6.4898   -5.9928 C   0  0  0  0  0  0  0  0  0  0  0  0
   -5.4505   -7.4222   -5.9220 C   0  0  0  0  0  0  0  0  0  0  0  0
   -4.5683   -7.0628   -5.1079 O   0  0  0  0  0  0  0  0  0  0  0  0
   -5.3950   -8.4145   -6.6830 O   0  0  0  0  0  0  0  0  0  0  0  0
   -7.6953   -6.7581   -7.1010 C   0  0  0  0  0  0  0  0  0  0  0  0
   -8.1869   -8.0590   -7.3624 C   0  0  0  0  0  0  0  0  0  0  0  0
   -9.1485   -8.2262   -8.3724 C   0  0  0  0  0  0  0  0  0  0  0  0
   -9.5764   -7.0717   -9.0537 C   0  0  0  0  0  0  0  0  0  0  0  0
   -9.0691   -5.8478   -8.7878 N   0  0  0  0  0  0  0  0  0  0  0  0
   -8.1510   -5.7005   -7.8260 N   0  0  0  0  0  0  0  0  0  0  0  0
   -7.5814   -3.4593   -4.9234 H   0  0  0  0  0  0  0  0  0  0  0  0
   -8.5616   -4.6372   -4.0593 H   0  0  0  0  0  0  0  0  0  0  0  0
   -8.7303   -4.4621   -5.7956 H   0  0  0  0  0  0  0  0  0  0  0  0
   -6.1440   -5.3600   -4.3289 H   0  0  0  0  0  0  0  0  0  0  0  0
   -7.8566   -8.9062   -6.7818 H   0  0  0  0  0  0  0  0  0  0  0  0
   -9.5460   -9.2000   -8.6118 H   0  0  0  0  0  0  0  0  0  0  0  0
  -10.3284   -7.1273   -9.8312 H   0  0  0  0  0  0  0  0  0  0  0  0
  1  2  1  0
  1 13  1  0
  1 14  1  0
  1 15  1  0
  2  3  2  3
  2 16  1  0
  3  4  1  0
  3  7  1  0
  4  5  2  0
  4  6  1  0
  7 12  2  0
  7  8  1  0
  8  9  2  0
  8 17  1  0
  9 10  1  0
  9 18  1  0
 10 11  2  0
 10 19  1  0
 11 12  1  0
M  CHG  1   6  -1
M  END
>  <i_m_ct_stereo_status>  (163) 
1

>  <s_m_source_file>  (163) 
/var/tmp/pbs.5076255.sched01/tmpxs4nfypl/40fgi3imsd.sdf

>  <i_m_source_file_index>  (163) 
40

>  <i_lp_mmshare_version>  (163) 
48012

>  <i_f3d_flags>  (163) 
0

>  <s_epik_input>  (163) 
W0NIM10vW0NIXT1DKFxDKD1PKVtPSF0pYzFbY0hdW2NIXVtjSF1ubjE=

>  <s_epik_cmdline>  (163) 
J2VwaWtfcHl0aG9uJywgJy1waHQnLCAnMi4wJywgJy1waCcsICc3LjAnLCAnLXRuJywgJzgnLCAnLW1hJywgJzIwMCcsICctaW1hZScsICc8aW5maWxlLm1hZT4nLCAnLW9tYWUnLCAnPG91dGZpbGUubWFlPic=

>  <r_epik_Ionization_Penalty>  (163) 
0.000579229

>  <r_epik_Ionization_Penalty_Charging>  (163) 
0.000550144

>  <r_epik_Ionization_Penalty_Neutral>  (163) 
2.9085e-05

>  <r_epik_State_Penalty>  (163) 
0.00034448

>  <r_epik_Charging_Adjusted_Penalty>  (163) 
0.000894624

>  <i_epik_Tot_Q>  (163) 
-1

>  <i_epik_Tot_abs_Q>  (163) 
1

>  <s_lp_Force_Field>  (163) 
OPLS3e

>  <r_lp_Energy>  (163) 
23.4645

>  <b_lp_Chiralities_Consistent>  (163) 
1

>  <s_lp_Variant>  (163) 
54:0-2

>  <s_i_glide_gridfile>  (163) 
pfpi4k_grid

>  <i_i_glide_lignum>  (163) 
40

>  <i_i_glide_rotatable_bonds>  (163) 
2

>  <r_i_docking_score>  (163) 
-4.98252

>  <r_i_glide_ligand_efficiency>  (163) 
-0.41521

>  <r_i_glide_ligand_efficiency_sa>  (163) 
-0.950594

>  <r_i_glide_ligand_efficiency_ln>  (163) 
-1.42974

>  <r_i_glide_gscore>  (163) 
-4.98252

>  <r_i_glide_lipo>  (163) 
-1.32334

>  <r_i_glide_hbond>  (163) 
-0.116242

>  <r_i_glide_metal>  (163) 
-0

>  <r_i_glide_rewards>  (163) 
-3.05925

>  <r_i_glide_evdw>  (163) 
-15.7876

>  <r_i_glide_ecoul>  (163) 
-1.76631

>  <r_i_glide_erotb>  (163) 
0.570638

>  <r_i_glide_esite>  (163) 
0

>  <r_i_glide_emodel>  (163) 
-25.4621

>  <r_i_glide_energy>  (163) 
-17.5539

>  <r_i_glide_einternal>  (163) 
1.22186

>  <r_i_glide_intrahb_reward>  (163) 
-0

>  <i_i_glide_confnum>  (163) 
3

>  <i_i_glide_posenum>  (163) 
6

>  <r_i_glide_eff_state_penalty>  (163) 
0

>  <ligand_id>  (163) 
54

>  <original_smiles>  (163) 
CC=C(C(=O)O)c1cccnn1

>  <smiles>  (163) 
[H]C(=C(C(=O)[O-])c1nnc([H])c([H])c1[H])C([H])([H])[H]

$$$$
54:1:1
     RDKit          3D

 19 19  0  0  1  0  0  0  0  0999 V2000
   -5.9225   -4.3855   -4.7137 C   0  0  0  0  0  0  0  0  0  0  0  0
   -5.7804   -5.8358   -5.1500 C   0  0  0  0  0  0  0  0  0  0  0  0
   -6.5725   -6.5534   -5.9825 C   0  0  0  0  0  0  0  0  0  0  0  0
   -6.2116   -8.0599   -6.3192 C   0  0  0  0  0  0  0  0  0  0  0  0
   -7.0776   -8.7544   -6.8979 O   0  0  0  0  0  0  0  0  0  0  0  0
   -5.0682   -8.4392   -5.9782 O   0  0  0  0  0  0  0  0  0  0  0  0
   -7.8330   -6.0209   -6.5778 C   0  0  0  0  0  0  0  0  0  0  0  0
   -8.2054   -6.2840   -7.9162 C   0  0  0  0  0  0  0  0  0  0  0  0
   -9.4114   -5.7430   -8.3983 C   0  0  0  0  0  0  0  0  0  0  0  0
  -10.1471   -4.9296   -7.5220 C   0  0  0  0  0  0  0  0  0  0  0  0
   -9.7414   -4.6663   -6.2612 N   0  0  0  0  0  0  0  0  0  0  0  0
   -8.6135   -5.2221   -5.7995 N   0  0  0  0  0  0  0  0  0  0  0  0
   -4.9812   -3.8679   -4.8644 H   0  0  0  0  0  0  0  0  0  0  0  0
   -6.1790   -4.3375   -3.6545 H   0  0  0  0  0  0  0  0  0  0  0  0
   -6.6698   -3.8240   -5.2600 H   0  0  0  0  0  0  0  0  0  0  0  0
   -4.9188   -6.3223   -4.7248 H   0  0  0  0  0  0  0  0  0  0  0  0
   -7.5950   -6.8994   -8.5593 H   0  0  0  0  0  0  0  0  0  0  0  0
   -9.7511   -5.9465   -9.4031 H   0  0  0  0  0  0  0  0  0  0  0  0
  -11.0730   -4.4665   -7.8387 H   0  0  0  0  0  0  0  0  0  0  0  0
  1  2  1  0
  1 13  1  0
  1 14  1  0
  1 15  1  0
  2  3  2  3
  2 16  1  0
  3  4  1  0
  3  7  1  0
  4  5  2  0
  4  6  1  0
  7 12  2  0
  7  8  1  0
  8  9  2  0
  8 17  1  0
  9 10  1  0
  9 18  1  0
 10 11  2  0
 10 19  1  0
 11 12  1  0
M  CHG  1   6  -1
M  END
>  <i_m_ct_stereo_status>  (164) 
1

>  <s_m_source_file>  (164) 
/var/tmp/pbs.5076255.sched01/tmpxs4nfypl/40fgi3imsd.sdf

>  <i_m_source_file_index>  (164) 
40

>  <i_lp_mmshare_version>  (164) 
48012

>  <i_f3d_flags>  (164) 
0

>  <s_epik_input>  (164) 
W0NIM10vW0NIXT1DKFxDKD1PKVtPSF0pYzFbY0hdW2NIXVtjSF1ubjE=

>  <s_epik_cmdline>  (164) 
J2VwaWtfcHl0aG9uJywgJy1waHQnLCAnMi4wJywgJy1waCcsICc3LjAnLCAnLXRuJywgJzgnLCAnLW1hJywgJzIwMCcsICctaW1hZScsICc8aW5maWxlLm1hZT4nLCAnLW9tYWUnLCAnPG91dGZpbGUubWFlPic=

>  <r_epik_Ionization_Penalty>  (164) 
0.000579229

>  <r_epik_Ionization_Penalty_Charging>  (164) 
0.000550144

>  <r_epik_Ionization_Penalty_Neutral>  (164) 
2.9085e-05

>  <r_epik_State_Penalty>  (164) 
0.00034448

>  <r_epik_Charging_Adjusted_Penalty>  (164) 
0.000894624

>  <i_epik_Tot_Q>  (164) 
-1

>  <i_epik_Tot_abs_Q>  (164) 
1

>  <s_lp_Force_Field>  (164) 
OPLS3e

>  <r_lp_Energy>  (164) 
23.4645

>  <b_lp_Chiralities_Consistent>  (164) 
1

>  <s_lp_Variant>  (164) 
54:0-2

>  <s_i_glide_gridfile>  (164) 
pfpi4k_grid

>  <i_i_glide_lignum>  (164) 
40

>  <i_i_glide_rotatable_bonds>  (164) 
2

>  <r_i_docking_score>  (164) 
-3.54552

>  <r_i_glide_ligand_efficiency>  (164) 
-0.29546

>  <r_i_glide_ligand_efficiency_sa>  (164) 
-0.676434

>  <r_i_glide_ligand_efficiency_ln>  (164) 
-1.01739

>  <r_i_glide_gscore>  (164) 
-3.54552

>  <r_i_glide_lipo>  (164) 
-1.31672

>  <r_i_glide_hbond>  (164) 
0

>  <r_i_glide_metal>  (164) 
-0

>  <r_i_glide_rewards>  (164) 
-1.98271

>  <r_i_glide_evdw>  (164) 
-19.4155

>  <r_i_glide_ecoul>  (164) 
1.02701

>  <r_i_glide_erotb>  (164) 
0.570638

>  <r_i_glide_esite>  (164) 
0

>  <r_i_glide_emodel>  (164) 
-24.4735

>  <r_i_glide_energy>  (164) 
-18.3885

>  <r_i_glide_einternal>  (164) 
0.500802

>  <r_i_glide_intrahb_reward>  (164) 
-0

>  <i_i_glide_confnum>  (164) 
4

>  <i_i_glide_posenum>  (164) 
4

>  <r_i_glide_eff_state_penalty>  (164) 
0

>  <ligand_id>  (164) 
54

>  <original_smiles>  (164) 
CC=C(C(=O)O)c1cccnn1

>  <smiles>  (164) 
[H]C(=C(C(=O)[O-])c1nnc([H])c([H])c1[H])C([H])([H])[H]

$$$$
54:1:2
     RDKit          3D

 19 19  0  0  1  0  0  0  0  0999 V2000
   -1.9023    3.6275    3.3317 C   0  0  0  0  0  0  0  0  0  0  0  0
   -1.8236    2.1725    3.7670 C   0  0  0  0  0  0  0  0  0  0  0  0
   -1.8151    1.6792    5.0241 C   0  0  0  0  0  0  0  0  0  0  0  0
   -1.7374    0.1194    5.2874 C   0  0  0  0  0  0  0  0  0  0  0  0
   -1.7189   -0.2529    6.4795 O   0  0  0  0  0  0  0  0  0  0  0  0
   -1.6986   -0.6579    4.3019 O   0  0  0  0  0  0  0  0  0  0  0  0
   -1.8133    2.5539    6.2341 C   0  0  0  0  0  0  0  0  0  0  0  0
   -0.8862    3.6183    6.3558 C   0  0  0  0  0  0  0  0  0  0  0  0
   -0.9595    4.4411    7.4991 C   0  0  0  0  0  0  0  0  0  0  0  0
   -1.9310    4.1243    8.4650 C   0  0  0  0  0  0  0  0  0  0  0  0
   -2.7860    3.0894    8.3102 N   0  0  0  0  0  0  0  0  0  0  0  0
   -2.7409    2.3329    7.2065 N   0  0  0  0  0  0  0  0  0  0  0  0
   -2.7003    3.7487    2.5885 H   0  0  0  0  0  0  0  0  0  0  0  0
   -0.9508    3.9211    2.8795 H   0  0  0  0  0  0  0  0  0  0  0  0
   -2.1212    4.3102    4.1487 H   0  0  0  0  0  0  0  0  0  0  0  0
   -1.7761    1.4764    2.9359 H   0  0  0  0  0  0  0  0  0  0  0  0
   -0.1632    3.8119    5.5814 H   0  0  0  0  0  0  0  0  0  0  0  0
   -0.3210    5.3014    7.6110 H   0  0  0  0  0  0  0  0  0  0  0  0
   -2.0445    4.7105    9.3620 H   0  0  0  0  0  0  0  0  0  0  0  0
  1  2  1  0
  1 13  1  0
  1 14  1  0
  1 15  1  0
  2  3  2  3
  2 16  1  0
  3  4  1  0
  3  7  1  0
  4  5  2  0
  4  6  1  0
  7 12  2  0
  7  8  1  0
  8  9  2  0
  8 17  1  0
  9 10  1  0
  9 18  1  0
 10 11  2  0
 10 19  1  0
 11 12  1  0
M  CHG  1   6  -1
M  END
>  <i_m_ct_stereo_status>  (165) 
1

>  <s_m_source_file>  (165) 
/var/tmp/pbs.5076255.sched01/tmpxs4nfypl/40fgi3imsd.sdf

>  <i_m_source_file_index>  (165) 
40

>  <i_lp_mmshare_version>  (165) 
48012

>  <i_f3d_flags>  (165) 
0

>  <s_epik_input>  (165) 
W0NIM10vW0NIXT1DKFxDKD1PKVtPSF0pYzFbY0hdW2NIXVtjSF1ubjE=

>  <s_epik_cmdline>  (165) 
J2VwaWtfcHl0aG9uJywgJy1waHQnLCAnMi4wJywgJy1waCcsICc3LjAnLCAnLXRuJywgJzgnLCAnLW1hJywgJzIwMCcsICctaW1hZScsICc8aW5maWxlLm1hZT4nLCAnLW9tYWUnLCAnPG91dGZpbGUubWFlPic=

>  <r_epik_Ionization_Penalty>  (165) 
0.000579229

>  <r_epik_Ionization_Penalty_Charging>  (165) 
0.000550144

>  <r_epik_Ionization_Penalty_Neutral>  (165) 
2.9085e-05

>  <r_epik_State_Penalty>  (165) 
0.00034448

>  <r_epik_Charging_Adjusted_Penalty>  (165) 
0.000894624

>  <i_epik_Tot_Q>  (165) 
-1

>  <i_epik_Tot_abs_Q>  (165) 
1

>  <s_lp_Force_Field>  (165) 
OPLS3e

>  <r_lp_Energy>  (165) 
23.4645

>  <b_lp_Chiralities_Consistent>  (165) 
1

>  <s_lp_Variant>  (165) 
54:0-2

>  <s_i_glide_gridfile>  (165) 
pfpi4k_grid

>  <i_i_glide_lignum>  (165) 
40

>  <i_i_glide_rotatable_bonds>  (165) 
2

>  <r_i_docking_score>  (165) 
-3.24263

>  <r_i_glide_ligand_efficiency>  (165) 
-0.270219

>  <r_i_glide_ligand_efficiency_sa>  (165) 
-0.618648

>  <r_i_glide_ligand_efficiency_ln>  (165) 
-0.930479

>  <r_i_glide_gscore>  (165) 
-3.24263

>  <r_i_glide_lipo>  (165) 
-0.0510602

>  <r_i_glide_hbond>  (165) 
-0.199416

>  <r_i_glide_metal>  (165) 
-0

>  <r_i_glide_rewards>  (165) 
-2.25

>  <r_i_glide_evdw>  (165) 
-12.5042

>  <r_i_glide_ecoul>  (165) 
-4.25082

>  <r_i_glide_erotb>  (165) 
0.570638

>  <r_i_glide_esite>  (165) 
-0.0499625

>  <r_i_glide_emodel>  (165) 
-22.6917

>  <r_i_glide_energy>  (165) 
-16.755

>  <r_i_glide_einternal>  (165) 
0.0358195

>  <r_i_glide_intrahb_reward>  (165) 
-0

>  <i_i_glide_confnum>  (165) 
3

>  <i_i_glide_posenum>  (165) 
27

>  <r_i_glide_eff_state_penalty>  (165) 
0

>  <ligand_id>  (165) 
54

>  <original_smiles>  (165) 
CC=C(C(=O)O)c1cccnn1

>  <smiles>  (165) 
[H]C(=C(C(=O)[O-])c1nnc([H])c([H])c1[H])C([H])([H])[H]

$$$$
55:0:0
     RDKit          3D

 20 21  0  0  1  0  0  0  0  0999 V2000
   -4.8321   -8.1793   -5.2455 C   0  0  0  0  0  0  0  0  0  0  0  0
   -6.0037   -7.3929   -5.8084 C   0  0  0  0  0  0  0  0  0  0  0  0
   -6.5022   -6.2977   -5.1906 C   0  0  0  0  0  0  0  0  0  0  0  0
   -7.6255   -5.5384   -5.7477 C   0  0  0  0  0  0  0  0  0  0  0  0
   -8.1693   -4.3968   -5.1222 C   0  0  0  0  0  0  0  0  0  0  0  0
   -9.2607   -3.7518   -5.7373 C   0  0  0  0  0  0  0  0  0  0  0  0
   -9.7529   -4.2758   -6.9433 C   0  0  0  0  0  0  0  0  0  0  0  0
   -9.2232   -5.3544   -7.5533 N   0  0  0  0  0  0  0  0  0  0  0  0
   -8.1848   -5.9844   -6.9624 C   0  0  0  0  0  0  0  0  0  0  0  0
   -7.6257   -7.1436   -7.5516 N   0  0  0  0  0  0  0  0  0  0  0  0
   -6.5867   -7.8612   -7.0735 C   0  0  0  0  0  0  0  0  0  0  0  0
   -6.1705   -8.8377   -7.6959 O   0  0  0  0  0  0  0  0  0  0  0  0
   -4.4599   -7.7450   -4.3210 H   0  0  0  0  0  0  0  0  0  0  0  0
   -4.0021   -8.1886   -5.9510 H   0  0  0  0  0  0  0  0  0  0  0  0
   -5.1248   -9.2134   -5.0522 H   0  0  0  0  0  0  0  0  0  0  0  0
   -6.0791   -5.9449   -4.2608 H   0  0  0  0  0  0  0  0  0  0  0  0
   -7.7633   -4.0264   -4.1922 H   0  0  0  0  0  0  0  0  0  0  0  0
   -9.7126   -2.8717   -5.3047 H   0  0  0  0  0  0  0  0  0  0  0  0
  -10.5861   -3.8109   -7.4492 H   0  0  0  0  0  0  0  0  0  0  0  0
   -8.0427   -7.4485   -8.4181 H   0  0  0  0  0  0  0  0  0  0  0  0
  1  2  1  0
  1 13  1  0
  1 14  1  0
  1 15  1  0
  2 11  1  0
  2  3  2  0
  3  4  1  0
  3 16  1  0
  4  9  2  0
  4  5  1  0
  5  6  2  0
  5 17  1  0
  6  7  1  0
  6 18  1  0
  7  8  2  0
  7 19  1  0
  8  9  1  0
  9 10  1  0
 10 11  1  0
 10 20  1  0
 11 12  2  0
M  END
>  <i_m_ct_stereo_status>  (166) 
1

>  <s_m_source_file>  (166) 
/var/tmp/pbs.5076255.sched01/tmppxy1xzy0/80exjuxwr6.sdf

>  <i_m_source_file_index>  (166) 
1

>  <i_lp_mmshare_version>  (166) 
48012

>  <i_f3d_flags>  (166) 
0

>  <s_epik_input>  (166) 
W0NIM11jKFtjSF0xKWMoW09IXSluYyhjMTIpbltjSF1bY0hdW2NIXTI=

>  <s_epik_cmdline>  (166) 
J2VwaWtfcHl0aG9uJywgJy1waHQnLCAnMi4wJywgJy1waCcsICc3LjAnLCAnLXRuJywgJzgnLCAnLW1hJywgJzIwMCcsICctaW1hZScsICc8aW5maWxlLm1hZT4nLCAnLW9tYWUnLCAnPG91dGZpbGUubWFlPic=

>  <r_lp_tautomer_probability>  (166) 
1

>  <r_epik_Ionization_Penalty>  (166) 
0.000661741

>  <r_epik_Ionization_Penalty_Charging>  (166) 
0.000661704

>  <r_epik_Ionization_Penalty_Neutral>  (166) 
3.7545e-08

>  <r_epik_State_Penalty>  (166) 
-0

>  <r_epik_Charging_Adjusted_Penalty>  (166) 
0.000661704

>  <i_epik_Tot_Q>  (166) 
0

>  <i_epik_Tot_abs_Q>  (166) 
0

>  <s_lp_Force_Field>  (166) 
OPLS3e

>  <r_lp_Energy>  (166) 
22.1656

>  <b_lp_Chiralities_Consistent>  (166) 
1

>  <s_lp_Variant>  (166) 
55:0-1

>  <s_i_glide_gridfile>  (166) 
pfpi4k_grid

>  <i_i_glide_lignum>  (166) 
1

>  <i_i_glide_rotatable_bonds>  (166) 
0

>  <r_i_docking_score>  (166) 
-6.56494

>  <r_i_glide_ligand_efficiency>  (166) 
-0.547078

>  <r_i_glide_ligand_efficiency_sa>  (166) 
-1.2525

>  <r_i_glide_ligand_efficiency_ln>  (166) 
-1.88382

>  <r_i_glide_gscore>  (166) 
-6.56494

>  <r_i_glide_lipo>  (166) 
-2.2648

>  <r_i_glide_hbond>  (166) 
0

>  <r_i_glide_metal>  (166) 
-0

>  <r_i_glide_rewards>  (166) 
-3.06115

>  <r_i_glide_evdw>  (166) 
-24.4746

>  <r_i_glide_ecoul>  (166) 
-0.101757

>  <r_i_glide_erotb>  (166) 
0

>  <r_i_glide_esite>  (166) 
0

>  <r_i_glide_emodel>  (166) 
-34.71

>  <r_i_glide_energy>  (166) 
-24.5763

>  <r_i_glide_einternal>  (166) 
0

>  <r_i_glide_intrahb_reward>  (166) 
-0

>  <i_i_glide_confnum>  (166) 
1

>  <i_i_glide_posenum>  (166) 
2

>  <r_i_glide_eff_state_penalty>  (166) 
0

>  <ligand_id>  (166) 
55

>  <original_smiles>  (166) 
Cc1cc2cccnc2nc1O

>  <smiles>  (166) 
[H]c1nc2c(c([H])c1[H])c([H])c(C([H])([H])[H])c(=O)n2[H]

$$$$
55:0:1
     RDKit          3D

 20 21  0  0  1  0  0  0  0  0999 V2000
   -6.5989   -4.4723   -4.3274 C   0  0  0  0  0  0  0  0  0  0  0  0
   -6.8721   -5.5290   -5.3814 C   0  0  0  0  0  0  0  0  0  0  0  0
   -7.9141   -5.4446   -6.2366 C   0  0  0  0  0  0  0  0  0  0  0  0
   -8.1629   -6.4662   -7.2598 C   0  0  0  0  0  0  0  0  0  0  0  0
   -9.2443   -6.4056   -8.1641 C   0  0  0  0  0  0  0  0  0  0  0  0
   -9.3890   -7.4452   -9.1034 C   0  0  0  0  0  0  0  0  0  0  0  0
   -8.4482   -8.4912   -9.0933 C   0  0  0  0  0  0  0  0  0  0  0  0
   -7.4159   -8.5492   -8.2293 N   0  0  0  0  0  0  0  0  0  0  0  0
   -7.2728   -7.5604   -7.3220 C   0  0  0  0  0  0  0  0  0  0  0  0
   -6.2062   -7.5926   -6.3946 N   0  0  0  0  0  0  0  0  0  0  0  0
   -5.9437   -6.6637   -5.4493 C   0  0  0  0  0  0  0  0  0  0  0  0
   -4.9608   -6.7839   -4.7224 O   0  0  0  0  0  0  0  0  0  0  0  0
   -7.3419   -3.6777   -4.3594 H   0  0  0  0  0  0  0  0  0  0  0  0
   -5.6161   -4.0237   -4.4785 H   0  0  0  0  0  0  0  0  0  0  0  0
   -6.6188   -4.9149   -3.3312 H   0  0  0  0  0  0  0  0  0  0  0  0
   -8.5983   -4.6089   -6.1893 H   0  0  0  0  0  0  0  0  0  0  0  0
   -9.9523   -5.5883   -8.1345 H   0  0  0  0  0  0  0  0  0  0  0  0
  -10.2072   -7.4486   -9.8082 H   0  0  0  0  0  0  0  0  0  0  0  0
   -8.5262   -9.3105   -9.7940 H   0  0  0  0  0  0  0  0  0  0  0  0
   -5.5780   -8.3765   -6.4649 H   0  0  0  0  0  0  0  0  0  0  0  0
  1  2  1  0
  1 13  1  0
  1 14  1  0
  1 15  1  0
  2 11  1  0
  2  3  2  0
  3  4  1  0
  3 16  1  0
  4  9  2  0
  4  5  1  0
  5  6  2  0
  5 17  1  0
  6  7  1  0
  6 18  1  0
  7  8  2  0
  7 19  1  0
  8  9  1  0
  9 10  1  0
 10 11  1  0
 10 20  1  0
 11 12  2  0
M  END
>  <i_m_ct_stereo_status>  (167) 
1

>  <s_m_source_file>  (167) 
/var/tmp/pbs.5076255.sched01/tmppxy1xzy0/80exjuxwr6.sdf

>  <i_m_source_file_index>  (167) 
1

>  <i_lp_mmshare_version>  (167) 
48012

>  <i_f3d_flags>  (167) 
0

>  <s_epik_input>  (167) 
W0NIM11jKFtjSF0xKWMoW09IXSluYyhjMTIpbltjSF1bY0hdW2NIXTI=

>  <s_epik_cmdline>  (167) 
J2VwaWtfcHl0aG9uJywgJy1waHQnLCAnMi4wJywgJy1waCcsICc3LjAnLCAnLXRuJywgJzgnLCAnLW1hJywgJzIwMCcsICctaW1hZScsICc8aW5maWxlLm1hZT4nLCAnLW9tYWUnLCAnPG91dGZpbGUubWFlPic=

>  <r_lp_tautomer_probability>  (167) 
1

>  <r_epik_Ionization_Penalty>  (167) 
0.000661741

>  <r_epik_Ionization_Penalty_Charging>  (167) 
0.000661704

>  <r_epik_Ionization_Penalty_Neutral>  (167) 
3.7545e-08

>  <r_epik_State_Penalty>  (167) 
-0

>  <r_epik_Charging_Adjusted_Penalty>  (167) 
0.000661704

>  <i_epik_Tot_Q>  (167) 
0

>  <i_epik_Tot_abs_Q>  (167) 
0

>  <s_lp_Force_Field>  (167) 
OPLS3e

>  <r_lp_Energy>  (167) 
22.1656

>  <b_lp_Chiralities_Consistent>  (167) 
1

>  <s_lp_Variant>  (167) 
55:0-1

>  <s_i_glide_gridfile>  (167) 
pfpi4k_grid

>  <i_i_glide_lignum>  (167) 
1

>  <i_i_glide_rotatable_bonds>  (167) 
0

>  <r_i_docking_score>  (167) 
-6.30891

>  <r_i_glide_ligand_efficiency>  (167) 
-0.525742

>  <r_i_glide_ligand_efficiency_sa>  (167) 
-1.20365

>  <r_i_glide_ligand_efficiency_ln>  (167) 
-1.81035

>  <r_i_glide_gscore>  (167) 
-6.30891

>  <r_i_glide_lipo>  (167) 
-1.67359

>  <r_i_glide_hbond>  (167) 
-0.261889

>  <r_i_glide_metal>  (167) 
-0

>  <r_i_glide_rewards>  (167) 
-3.1112

>  <r_i_glide_evdw>  (167) 
-21.3093

>  <r_i_glide_ecoul>  (167) 
-1.31173

>  <r_i_glide_erotb>  (167) 
0

>  <r_i_glide_esite>  (167) 
0

>  <r_i_glide_emodel>  (167) 
-32.3597

>  <r_i_glide_energy>  (167) 
-22.621

>  <r_i_glide_einternal>  (167) 
0

>  <r_i_glide_intrahb_reward>  (167) 
-0

>  <i_i_glide_confnum>  (167) 
1

>  <i_i_glide_posenum>  (167) 
9

>  <r_i_glide_eff_state_penalty>  (167) 
0

>  <ligand_id>  (167) 
55

>  <original_smiles>  (167) 
Cc1cc2cccnc2nc1O

>  <smiles>  (167) 
[H]c1nc2c(c([H])c1[H])c([H])c(C([H])([H])[H])c(=O)n2[H]

$$$$
55:0:2
     RDKit          3D

 20 21  0  0  1  0  0  0  0  0999 V2000
    3.8054   -0.6047   -4.5646 C   0  0  0  0  0  0  0  0  0  0  0  0
    3.8725   -1.3845   -3.2646 C   0  0  0  0  0  0  0  0  0  0  0  0
    4.2161   -0.8008   -2.1021 C   0  0  0  0  0  0  0  0  0  0  0  0
    4.2739   -1.5285   -0.8341 C   0  0  0  0  0  0  0  0  0  0  0  0
    4.6004   -0.9214    0.3952 C   0  0  0  0  0  0  0  0  0  0  0  0
    4.6202   -1.7251    1.5510 C   0  0  0  0  0  0  0  0  0  0  0  0
    4.3033   -3.0906    1.4217 C   0  0  0  0  0  0  0  0  0  0  0  0
    3.9729   -3.6678    0.2495 N   0  0  0  0  0  0  0  0  0  0  0  0
    3.9541   -2.8993   -0.8629 C   0  0  0  0  0  0  0  0  0  0  0  0
    3.6087   -3.4551   -2.1152 N   0  0  0  0  0  0  0  0  0  0  0  0
    3.5665   -2.8123   -3.2943 C   0  0  0  0  0  0  0  0  0  0  0  0
    3.3031   -3.4274   -4.3192 O   0  0  0  0  0  0  0  0  0  0  0  0
    4.0603    0.4528   -4.4356 H   0  0  0  0  0  0  0  0  0  0  0  0
    2.8030   -0.6700   -5.0004 H   0  0  0  0  0  0  0  0  0  0  0  0
    4.5097   -1.0515   -5.2617 H   0  0  0  0  0  0  0  0  0  0  0  0
    4.4474    0.2441   -2.0914 H   0  0  0  0  0  0  0  0  0  0  0  0
    4.8280    0.1337    0.4553 H   0  0  0  0  0  0  0  0  0  0  0  0
    4.8688   -1.3159    2.5188 H   0  0  0  0  0  0  0  0  0  0  0  0
    4.3069   -3.7483    2.2769 H   0  0  0  0  0  0  0  0  0  0  0  0
    3.4113   -4.4519   -2.1413 H   0  0  0  0  0  0  0  0  0  0  0  0
  1  2  1  0
  1 13  1  0
  1 14  1  0
  1 15  1  0
  2 11  1  0
  2  3  2  0
  3  4  1  0
  3 16  1  0
  4  9  2  0
  4  5  1  0
  5  6  2  0
  5 17  1  0
  6  7  1  0
  6 18  1  0
  7  8  2  0
  7 19  1  0
  8  9  1  0
  9 10  1  0
 10 11  1  0
 10 20  1  0
 11 12  2  0
M  END
>  <i_m_ct_stereo_status>  (168) 
1

>  <s_m_source_file>  (168) 
/var/tmp/pbs.5076255.sched01/tmppxy1xzy0/80exjuxwr6.sdf

>  <i_m_source_file_index>  (168) 
1

>  <i_lp_mmshare_version>  (168) 
48012

>  <i_f3d_flags>  (168) 
0

>  <s_epik_input>  (168) 
W0NIM11jKFtjSF0xKWMoW09IXSluYyhjMTIpbltjSF1bY0hdW2NIXTI=

>  <s_epik_cmdline>  (168) 
J2VwaWtfcHl0aG9uJywgJy1waHQnLCAnMi4wJywgJy1waCcsICc3LjAnLCAnLXRuJywgJzgnLCAnLW1hJywgJzIwMCcsICctaW1hZScsICc8aW5maWxlLm1hZT4nLCAnLW9tYWUnLCAnPG91dGZpbGUubWFlPic=

>  <r_lp_tautomer_probability>  (168) 
1

>  <r_epik_Ionization_Penalty>  (168) 
0.000661741

>  <r_epik_Ionization_Penalty_Charging>  (168) 
0.000661704

>  <r_epik_Ionization_Penalty_Neutral>  (168) 
3.7545e-08

>  <r_epik_State_Penalty>  (168) 
-0

>  <r_epik_Charging_Adjusted_Penalty>  (168) 
0.000661704

>  <i_epik_Tot_Q>  (168) 
0

>  <i_epik_Tot_abs_Q>  (168) 
0

>  <s_lp_Force_Field>  (168) 
OPLS3e

>  <r_lp_Energy>  (168) 
22.1656

>  <b_lp_Chiralities_Consistent>  (168) 
1

>  <s_lp_Variant>  (168) 
55:0-1

>  <s_i_glide_gridfile>  (168) 
pfpi4k_grid

>  <i_i_glide_lignum>  (168) 
1

>  <i_i_glide_rotatable_bonds>  (168) 
0

>  <r_i_docking_score>  (168) 
-4.89212

>  <r_i_glide_ligand_efficiency>  (168) 
-0.407677

>  <r_i_glide_ligand_efficiency_sa>  (168) 
-0.933347

>  <r_i_glide_ligand_efficiency_ln>  (168) 
-1.4038

>  <r_i_glide_gscore>  (168) 
-4.89212

>  <r_i_glide_lipo>  (168) 
-0.538406

>  <r_i_glide_hbond>  (168) 
-0.409498

>  <r_i_glide_metal>  (168) 
-0

>  <r_i_glide_rewards>  (168) 
-2.25

>  <r_i_glide_evdw>  (168) 
-19.5609

>  <r_i_glide_ecoul>  (168) 
-4.59416

>  <r_i_glide_erotb>  (168) 
0

>  <r_i_glide_esite>  (168) 
-0.0270493

>  <r_i_glide_emodel>  (168) 
-31.6987

>  <r_i_glide_energy>  (168) 
-24.155

>  <r_i_glide_einternal>  (168) 
0

>  <r_i_glide_intrahb_reward>  (168) 
-0

>  <i_i_glide_confnum>  (168) 
1

>  <i_i_glide_posenum>  (168) 
1

>  <r_i_glide_eff_state_penalty>  (168) 
0

>  <ligand_id>  (168) 
55

>  <original_smiles>  (168) 
Cc1cc2cccnc2nc1O

>  <smiles>  (168) 
[H]c1nc2c(c([H])c1[H])c([H])c(C([H])([H])[H])c(=O)n2[H]

$$$$
56:0:0
     RDKit          3D

 52 55  0  0  1  0  0  0  0  0999 V2000
    4.8620    0.1041    1.7727 C   0  0  0  0  0  0  0  0  0  0  0  0
    5.0255   -1.1568    0.9488 C   0  0  2  0  0  0  0  0  0  0  0  0
    3.6728   -1.6778    0.4304 C   0  0  0  0  0  0  0  0  0  0  0  0
    3.6198   -3.2474    0.4142 C   0  0  2  0  0  0  0  0  0  0  0  0
    2.2602   -3.6844   -0.1938 C   0  0  0  0  0  0  0  0  0  0  0  0
    1.7668   -5.1225    0.1253 C   0  0  0  0  0  0  0  0  0  0  0  0
    1.9613   -3.3964   -1.6636 C   0  0  0  0  0  0  0  0  0  0  0  0
    3.6279   -3.5929    1.9459 C   0  0  0  0  0  0  0  0  0  0  0  0
    4.7533   -2.8445    2.7113 C   0  0  1  0  0  0  0  0  0  0  0  0
    5.2823   -3.6086    3.9443 C   0  0  0  0  0  0  0  0  0  0  0  0
    5.7688   -2.2957    1.6579 C   0  0  1  0  0  0  0  0  0  0  0  0
    6.1737   -3.4180    0.6125 C   0  0  2  0  0  0  0  0  0  0  0  0
    7.1425   -4.3989    1.3258 C   0  0  0  0  0  0  0  0  0  0  0  0
    6.8216   -5.4455    1.8932 O   0  0  0  0  0  0  0  0  0  0  0  0
    8.3978   -3.9098    1.2067 O   0  0  0  0  0  0  0  0  0  0  0  0
    8.3533   -2.7530    0.2436 O   0  0  0  0  0  0  0  0  0  0  0  0
    7.1998   -3.1111   -0.4746 C   0  0  2  0  0  0  0  0  0  0  0  0
    6.5619   -2.4499   -1.6737 C   0  0  0  0  0  0  0  0  0  0  0  0
    5.1817   -3.1162   -1.6875 C   0  0  1  0  0  0  0  0  0  0  0  0
    5.0427   -3.9129   -2.9765 C   0  0  0  0  0  0  0  0  0  0  0  0
    4.9346   -3.8390   -0.2778 C   0  0  2  0  0  0  0  0  0  0  0  0
    4.9394   -5.3833   -0.3713 C   0  0  0  0  0  0  0  0  0  0  0  0
    4.1743    0.0178    2.6067 H   0  0  0  0  0  0  0  0  0  0  0  0
    4.4617    0.8499    1.0842 H   0  0  0  0  0  0  0  0  0  0  0  0
    5.8206    0.4252    2.1748 H   0  0  0  0  0  0  0  0  0  0  0  0
    5.6378   -0.8168    0.1416 H   0  0  0  0  0  0  0  0  0  0  0  0
    2.8751   -1.2580    1.0379 H   0  0  0  0  0  0  0  0  0  0  0  0
    3.4766   -1.2142   -0.5356 H   0  0  0  0  0  0  0  0  0  0  0  0
    1.5793   -2.9663    0.2793 H   0  0  0  0  0  0  0  0  0  0  0  0
    2.3971   -5.9300   -0.2483 H   0  0  0  0  0  0  0  0  0  0  0  0
    0.7958   -5.3258   -0.3425 H   0  0  0  0  0  0  0  0  0  0  0  0
    1.6142   -5.2868    1.1952 H   0  0  0  0  0  0  0  0  0  0  0  0
    2.4701   -4.1024   -2.3002 H   0  0  0  0  0  0  0  0  0  0  0  0
    2.2255   -2.3795   -1.9806 H   0  0  0  0  0  0  0  0  0  0  0  0
    0.8958   -3.4870   -1.9063 H   0  0  0  0  0  0  0  0  0  0  0  0
    2.6785   -3.2574    2.3836 H   0  0  0  0  0  0  0  0  0  0  0  0
    3.6856   -4.6599    2.1512 H   0  0  0  0  0  0  0  0  0  0  0  0
    4.3014   -1.9813    3.1809 H   0  0  0  0  0  0  0  0  0  0  0  0
    5.4889   -4.6517    3.7285 H   0  0  0  0  0  0  0  0  0  0  0  0
    4.5256   -3.6053    4.7334 H   0  0  0  0  0  0  0  0  0  0  0  0
    6.1662   -3.1440    4.3779 H   0  0  0  0  0  0  0  0  0  0  0  0
    6.6481   -1.8917    2.1612 H   0  0  0  0  0  0  0  0  0  0  0  0
    7.5261   -4.0425   -0.9508 H   0  0  0  0  0  0  0  0  0  0  0  0
    6.4495   -1.3836   -1.5935 H   0  0  0  0  0  0  0  0  0  0  0  0
    7.1548   -2.6487   -2.5680 H   0  0  0  0  0  0  0  0  0  0  0  0
    4.4756   -2.3375   -1.8834 H   0  0  0  0  0  0  0  0  0  0  0  0
    5.8443   -4.6146   -2.8036 H   0  0  0  0  0  0  0  0  0  0  0  0
    5.3580   -3.4054   -3.8991 H   0  0  0  0  0  0  0  0  0  0  0  0
    4.2104   -4.5370   -3.1589 H   0  0  0  0  0  0  0  0  0  0  0  0
    5.9209   -5.7731   -0.5869 H   0  0  0  0  0  0  0  0  0  0  0  0
    4.2680   -5.7265   -1.1047 H   0  0  0  0  0  0  0  0  0  0  0  0
    4.6328   -5.8613    0.5517 H   0  0  0  0  0  0  0  0  0  0  0  0
  1  2  1  0
  1 23  1  0
  1 24  1  0
  1 25  1  0
  2 11  1  0
  2  3  1  0
  2 26  1  6
  3  4  1  0
  3 27  1  0
  3 28  1  0
  4 21  1  0
  4  5  1  6
  4  8  1  0
  5  6  1  0
  5  7  1  0
  5 29  1  0
  6 30  1  0
  6 31  1  0
  6 32  1  0
  7 33  1  0
  7 34  1  0
  7 35  1  0
  8  9  1  0
  8 36  1  0
  8 37  1  0
  9 10  1  0
  9 11  1  0
  9 38  1  1
 10 39  1  0
 10 40  1  0
 10 41  1  0
 11 12  1  0
 11 42  1  1
 12 17  1  0
 12 21  1  0
 12 13  1  1
 13 14  2  0
 13 15  1  0
 15 16  1  0
 16 17  1  0
 17 18  1  0
 17 43  1  6
 18 19  1  0
 18 44  1  0
 18 45  1  0
 19 20  1  0
 19 21  1  0
 19 46  1  6
 20 47  1  0
 20 48  1  0
 20 49  1  0
 21 22  1  6
 22 50  1  0
 22 51  1  0
 22 52  1  0
M  END
>  <i_m_ct_stereo_status>  (169) 
1

>  <s_m_source_file>  (169) 
/var/tmp/pbs.5076255.sched01/tmppxy1xzy0/80exjuxwr6.sdf

>  <i_m_source_file_index>  (169) 
2

>  <i_lp_mmshare_version>  (169) 
48012

>  <i_f3d_flags>  (169) 
0

>  <s_epik_input>  (169) 
W0NAQF0xMjNbQ0BIXTRbQ0BIXShbQ0gzXSlbQ0gyXVtDQF0oW0NIXShbQ0gzXSlbQ0gzXSkoW0NIMl1bQ0BIXTRbQ0gzXSlbQ0BAXTMoW0NIM10pW0NASF0oW0NIM10pW0NIMl1bQ0BIXTJPT0MxPU8=

>  <s_epik_cmdline>  (169) 
J2VwaWtfcHl0aG9uJywgJy1waHQnLCAnMi4wJywgJy1waCcsICc3LjAnLCAnLXRuJywgJzgnLCAnLW1hJywgJzIwMCcsICctaW1hZScsICc8aW5maWxlLm1hZT4nLCAnLW9tYWUnLCAnPG91dGZpbGUubWFlPic=

>  <r_lp_tautomer_probability>  (169) 
1

>  <r_epik_Ionization_Penalty>  (169) 
0

>  <r_epik_Ionization_Penalty_Charging>  (169) 
0

>  <r_epik_Ionization_Penalty_Neutral>  (169) 
0

>  <r_epik_State_Penalty>  (169) 
-0

>  <r_epik_Charging_Adjusted_Penalty>  (169) 
0

>  <i_epik_Tot_Q>  (169) 
0

>  <i_epik_Tot_abs_Q>  (169) 
0

>  <s_lp_Force_Field>  (169) 
OPLS3e

>  <r_lp_Energy>  (169) 
81.6221

>  <b_lp_Chiralities_Consistent>  (169) 
1

>  <s_lp_Variant>  (169) 
56:0-1

>  <s_i_glide_gridfile>  (169) 
pfpi4k_grid

>  <i_i_glide_lignum>  (169) 
2

>  <i_i_glide_rotatable_bonds>  (169) 
1

>  <r_i_docking_score>  (169) 
-2.58545

>  <r_i_glide_ligand_efficiency>  (169) 
-0.117521

>  <r_i_glide_ligand_efficiency_sa>  (169) 
-0.329297

>  <r_i_glide_ligand_efficiency_ln>  (169) 
-0.631979

>  <r_i_glide_gscore>  (169) 
-2.58545

>  <r_i_glide_lipo>  (169) 
-0.701939

>  <r_i_glide_hbond>  (169) 
0

>  <r_i_glide_metal>  (169) 
-0

>  <r_i_glide_rewards>  (169) 
-1.48241

>  <r_i_glide_evdw>  (169) 
-8.64063

>  <r_i_glide_ecoul>  (169) 
0.206168

>  <r_i_glide_erotb>  (169) 
0

>  <r_i_glide_esite>  (169) 
0

>  <r_i_glide_emodel>  (169) 
-8.71475

>  <r_i_glide_energy>  (169) 
-8.43446

>  <r_i_glide_einternal>  (169) 
0.686214

>  <r_i_glide_intrahb_reward>  (169) 
-0

>  <i_i_glide_confnum>  (169) 
1

>  <i_i_glide_posenum>  (169) 
13

>  <r_i_glide_eff_state_penalty>  (169) 
0

>  <ligand_id>  (169) 
56

>  <original_smiles>  (169) 
CC1CC2(C(C)C)CC(C)C1C13C(=O)OOC1CC(C)C23C

>  <smiles>  (169) 
[H]C([H])([H])C1([H])C([H])([H])C2(C([H])(C([H])([H])[H])C([H])([H])[H])C([H])([H])C([H])(C([H])([H])[H])C1([H])C13C(=O)OOC1([H])C([H])([H])C([H])(C([H])([H])[H])C32C([H])([H])[H]

$$$$
56:0:1
     RDKit          3D

 52 55  0  0  1  0  0  0  0  0999 V2000
    6.7805   -6.2090    2.6555 C   0  0  0  0  0  0  0  0  0  0  0  0
    5.5895   -5.3884    2.1201 C   0  0  2  0  0  0  0  0  0  0  0  0
    6.0106   -4.0776    1.3950 C   0  0  0  0  0  0  0  0  0  0  0  0
    5.0016   -2.8937    1.6469 C   0  0  2  0  0  0  0  0  0  0  0  0
    5.4852   -1.6146    0.8344 C   0  0  0  0  0  0  0  0  0  0  0  0
    5.0032   -0.2415    1.3515 C   0  0  0  0  0  0  0  0  0  0  0  0
    5.2487   -1.6339   -0.6949 C   0  0  0  0  0  0  0  0  0  0  0  0
    5.1732   -2.6103    3.1762 C   0  0  0  0  0  0  0  0  0  0  0  0
    5.1094   -3.9047    4.0359 C   0  0  1  0  0  0  0  0  0  0  0  0
    4.5590   -3.6791    5.4641 C   0  0  0  0  0  0  0  0  0  0  0  0
    4.4925   -5.0413    3.1626 C   0  0  1  0  0  0  0  0  0  0  0  0
    3.1788   -4.5376    2.4477 C   0  0  2  0  0  0  0  0  0  0  0  0
    2.0765   -4.4928    3.5377 C   0  0  0  0  0  0  0  0  0  0  0  0
    1.7015   -3.4936    4.1727 O   0  0  0  0  0  0  0  0  0  0  0  0
    1.5442   -5.7310    3.6437 O   0  0  0  0  0  0  0  0  0  0  0  0
    2.0305   -6.5369    2.4658 O   0  0  0  0  0  0  0  0  0  0  0  0
    2.3728   -5.5047    1.5880 C   0  0  2  0  0  0  0  0  0  0  0  0
    2.9018   -5.5750    0.1848 C   0  0  0  0  0  0  0  0  0  0  0  0
    3.3180   -4.1005   -0.0390 C   0  0  1  0  0  0  0  0  0  0  0  0
    2.3746   -3.4281   -1.0761 C   0  0  0  0  0  0  0  0  0  0  0  0
    3.4901   -3.3883    1.3979 C   0  0  2  0  0  0  0  0  0  0  0  0
    2.4537   -2.2407    1.5483 C   0  0  0  0  0  0  0  0  0  0  0  0
    7.4251   -5.6456    3.3277 H   0  0  0  0  0  0  0  0  0  0  0  0
    7.4069   -6.5418    1.8255 H   0  0  0  0  0  0  0  0  0  0  0  0
    6.4420   -7.1036    3.1821 H   0  0  0  0  0  0  0  0  0  0  0  0
    5.1579   -6.0741    1.4120 H   0  0  0  0  0  0  0  0  0  0  0  0
    7.0068   -3.7959    1.7394 H   0  0  0  0  0  0  0  0  0  0  0  0
    6.1704   -4.2915    0.3394 H   0  0  0  0  0  0  0  0  0  0  0  0
    6.5809   -1.6014    0.9593 H   0  0  0  0  0  0  0  0  0  0  0  0
    3.9253   -0.1193    1.3633 H   0  0  0  0  0  0  0  0  0  0  0  0
    5.3790    0.5406    0.6865 H   0  0  0  0  0  0  0  0  0  0  0  0
    5.3856   -0.0185    2.3440 H   0  0  0  0  0  0  0  0  0  0  0  0
    4.2399   -1.4242   -0.8979 H   0  0  0  0  0  0  0  0  0  0  0  0
    5.5557   -2.5663   -1.1703 H   0  0  0  0  0  0  0  0  0  0  0  0
    5.8412   -0.8546   -1.1984 H   0  0  0  0  0  0  0  0  0  0  0  0
    6.1481   -2.1520    3.3167 H   0  0  0  0  0  0  0  0  0  0  0  0
    4.4546   -1.8823    3.5475 H   0  0  0  0  0  0  0  0  0  0  0  0
    6.1287   -4.2165    4.2517 H   0  0  0  0  0  0  0  0  0  0  0  0
    3.6684   -3.0605    5.4839 H   0  0  0  0  0  0  0  0  0  0  0  0
    5.2968   -3.1497    6.0685 H   0  0  0  0  0  0  0  0  0  0  0  0
    4.3421   -4.6213    5.9682 H   0  0  0  0  0  0  0  0  0  0  0  0
    4.2862   -5.9194    3.7805 H   0  0  0  0  0  0  0  0  0  0  0  0
    1.4103   -5.0489    1.3596 H   0  0  0  0  0  0  0  0  0  0  0  0
    3.7153   -6.2776    0.0455 H   0  0  0  0  0  0  0  0  0  0  0  0
    2.1152   -5.8819   -0.4968 H   0  0  0  0  0  0  0  0  0  0  0  0
    4.2698   -4.1829   -0.5437 H   0  0  0  0  0  0  0  0  0  0  0  0
    1.3411   -3.4767   -0.7352 H   0  0  0  0  0  0  0  0  0  0  0  0
    2.3823   -3.9926   -2.0140 H   0  0  0  0  0  0  0  0  0  0  0  0
    2.6033   -2.4179   -1.3229 H   0  0  0  0  0  0  0  0  0  0  0  0
    1.4291   -2.6093    1.5420 H   0  0  0  0  0  0  0  0  0  0  0  0
    2.5402   -1.5056    0.7528 H   0  0  0  0  0  0  0  0  0  0  0  0
    2.5664   -1.7004    2.4856 H   0  0  0  0  0  0  0  0  0  0  0  0
  1  2  1  0
  1 23  1  0
  1 24  1  0
  1 25  1  0
  2 11  1  0
  2  3  1  0
  2 26  1  6
  3  4  1  0
  3 27  1  0
  3 28  1  0
  4 21  1  0
  4  5  1  6
  4  8  1  0
  5  6  1  0
  5  7  1  0
  5 29  1  0
  6 30  1  0
  6 31  1  0
  6 32  1  0
  7 33  1  0
  7 34  1  0
  7 35  1  0
  8  9  1  0
  8 36  1  0
  8 37  1  0
  9 10  1  0
  9 11  1  0
  9 38  1  1
 10 39  1  0
 10 40  1  0
 10 41  1  0
 11 12  1  0
 11 42  1  1
 12 17  1  0
 12 21  1  0
 12 13  1  1
 13 14  2  0
 13 15  1  0
 15 16  1  0
 16 17  1  0
 17 18  1  0
 17 43  1  6
 18 19  1  0
 18 44  1  0
 18 45  1  0
 19 20  1  0
 19 21  1  0
 19 46  1  6
 20 47  1  0
 20 48  1  0
 20 49  1  0
 21 22  1  6
 22 50  1  0
 22 51  1  0
 22 52  1  0
M  END
>  <i_m_ct_stereo_status>  (170) 
1

>  <s_m_source_file>  (170) 
/var/tmp/pbs.5076255.sched01/tmppxy1xzy0/80exjuxwr6.sdf

>  <i_m_source_file_index>  (170) 
2

>  <i_lp_mmshare_version>  (170) 
48012

>  <i_f3d_flags>  (170) 
0

>  <s_epik_input>  (170) 
W0NAQF0xMjNbQ0BIXTRbQ0BIXShbQ0gzXSlbQ0gyXVtDQF0oW0NIXShbQ0gzXSlbQ0gzXSkoW0NIMl1bQ0BIXTRbQ0gzXSlbQ0BAXTMoW0NIM10pW0NASF0oW0NIM10pW0NIMl1bQ0BIXTJPT0MxPU8=

>  <s_epik_cmdline>  (170) 
J2VwaWtfcHl0aG9uJywgJy1waHQnLCAnMi4wJywgJy1waCcsICc3LjAnLCAnLXRuJywgJzgnLCAnLW1hJywgJzIwMCcsICctaW1hZScsICc8aW5maWxlLm1hZT4nLCAnLW9tYWUnLCAnPG91dGZpbGUubWFlPic=

>  <r_lp_tautomer_probability>  (170) 
1

>  <r_epik_Ionization_Penalty>  (170) 
0

>  <r_epik_Ionization_Penalty_Charging>  (170) 
0

>  <r_epik_Ionization_Penalty_Neutral>  (170) 
0

>  <r_epik_State_Penalty>  (170) 
-0

>  <r_epik_Charging_Adjusted_Penalty>  (170) 
0

>  <i_epik_Tot_Q>  (170) 
0

>  <i_epik_Tot_abs_Q>  (170) 
0

>  <s_lp_Force_Field>  (170) 
OPLS3e

>  <r_lp_Energy>  (170) 
81.6221

>  <b_lp_Chiralities_Consistent>  (170) 
1

>  <s_lp_Variant>  (170) 
56:0-1

>  <s_i_glide_gridfile>  (170) 
pfpi4k_grid

>  <i_i_glide_lignum>  (170) 
2

>  <i_i_glide_rotatable_bonds>  (170) 
1

>  <r_i_docking_score>  (170) 
-2.45443

>  <r_i_glide_ligand_efficiency>  (170) 
-0.111565

>  <r_i_glide_ligand_efficiency_sa>  (170) 
-0.31261

>  <r_i_glide_ligand_efficiency_ln>  (170) 
-0.599953

>  <r_i_glide_gscore>  (170) 
-2.45443

>  <r_i_glide_lipo>  (170) 
-0.496828

>  <r_i_glide_hbond>  (170) 
0

>  <r_i_glide_metal>  (170) 
-0

>  <r_i_glide_rewards>  (170) 
-1.31973

>  <r_i_glide_evdw>  (170) 
-13.5126

>  <r_i_glide_ecoul>  (170) 
0.255062

>  <r_i_glide_erotb>  (170) 
0

>  <r_i_glide_esite>  (170) 
-0.000505376

>  <r_i_glide_emodel>  (170) 
-14.335

>  <r_i_glide_energy>  (170) 
-13.2575

>  <r_i_glide_einternal>  (170) 
0.567613

>  <r_i_glide_intrahb_reward>  (170) 
-0

>  <i_i_glide_confnum>  (170) 
2

>  <i_i_glide_posenum>  (170) 
35

>  <r_i_glide_eff_state_penalty>  (170) 
0

>  <ligand_id>  (170) 
56

>  <original_smiles>  (170) 
CC1CC2(C(C)C)CC(C)C1C13C(=O)OOC1CC(C)C23C

>  <smiles>  (170) 
[H]C([H])([H])C1([H])C([H])([H])C2(C([H])(C([H])([H])[H])C([H])([H])[H])C([H])([H])C([H])(C([H])([H])[H])C1([H])C13C(=O)OOC1([H])C([H])([H])C([H])(C([H])([H])[H])C32C([H])([H])[H]

$$$$
58:0:0
     RDKit          3D

 67 72  0  0  1  0  0  0  0  0999 V2000
   -3.4586    3.1169    2.8259 C   0  0  0  0  0  0  0  0  0  0  0  0
   -2.0670    2.9165    3.3984 C   0  0  0  0  0  0  0  0  0  0  0  0
   -0.9859    2.3919    2.8407 C   0  0  0  0  0  0  0  0  0  0  0  0
    0.2555    2.3443    3.7390 C   0  0  1  0  0  0  0  0  0  0  0  0
   -0.1686    3.4191    4.8425 C   0  0  1  0  0  0  0  0  0  0  0  0
    0.2532    4.6408    4.2396 O   0  0  0  0  0  0  0  0  0  0  0  0
   -1.7094    3.3387    4.7505 C   0  0  0  0  0  0  0  0  0  0  0  0
   -2.4657    3.5485    5.6917 O   0  0  0  0  0  0  0  0  0  0  0  0
    0.4464    3.5000    6.2814 C   0  0  1  0  0  0  0  0  0  0  0  0
    0.0479    4.6727    6.9823 O   0  0  0  0  0  0  0  0  0  0  0  0
    0.2305    2.2681    7.1755 C   0  0  0  0  0  0  0  0  0  0  0  0
    0.2609    2.3322    8.3979 O   0  0  0  0  0  0  0  0  0  0  0  0
   -0.0191    1.0332    6.4299 C   0  0  2  0  0  0  0  0  0  0  0  0
    0.7196   -0.1911    6.5175 O   0  0  0  0  0  0  0  0  0  0  0  0
    1.1670    0.7238    5.4880 C   0  0  2  0  0  0  0  0  0  0  0  0
    2.6642    1.1135    5.6353 C   0  0  1  0  0  0  0  0  0  0  0  0
    3.2640    1.3025    7.0513 C   0  0  1  0  0  0  0  0  0  0  0  0
    3.1432    0.1622    7.8840 O   0  0  0  0  0  0  0  0  0  0  0  0
    4.7544    1.5018    6.7890 C   0  0  0  0  0  0  0  0  0  0  0  0
    5.0859    0.5060    5.6781 C   0  0  1  0  0  0  0  0  0  0  0  0
    5.6505   -0.6384    6.2846 O   0  0  0  0  0  0  0  0  0  0  0  0
    3.7578    0.2896    4.8743 C   0  0  1  0  0  0  0  0  0  0  0  0
    3.4147   -1.1509    4.3282 C   0  0  2  0  0  0  0  0  0  0  0  0
    3.0093   -2.1352    5.4659 C   0  0  0  0  0  0  0  0  0  0  0  0
    4.6857   -1.7554    3.6719 C   0  0  0  0  0  0  0  0  0  0  0  0
    4.2345   -2.4841    2.4156 C   0  0  0  0  0  0  0  0  0  0  0  0
    3.1519   -1.5690    1.8536 C   0  0  1  0  0  0  0  0  0  0  0  0
    3.8257   -0.4452    1.0376 C   0  0  0  0  0  0  0  0  0  0  0  0
    2.3606   -2.3293    0.9426 O   0  0  0  0  0  0  0  0  0  0  0  0
    2.3627   -1.1125    3.1396 C   0  0  1  0  0  0  0  0  0  0  0  0
    1.3937   -2.1242    3.3537 O   0  0  0  0  0  0  0  0  0  0  0  0
    1.5728    0.2404    2.9481 C   0  0  1  0  0  0  0  0  0  0  0  0
    0.7568    0.1292    1.7918 O   0  0  0  0  0  0  0  0  0  0  0  0
    0.6261    0.8251    4.0714 C   0  0  2  0  0  0  0  0  0  0  0  0
   -0.5720    0.0466    4.0266 O   0  0  0  0  0  0  0  0  0  0  0  0
   -4.1663    2.6023    3.4652 H   0  0  0  0  0  0  0  0  0  0  0  0
   -3.5574    2.7024    1.8254 H   0  0  0  0  0  0  0  0  0  0  0  0
   -3.7346    4.1659    2.8016 H   0  0  0  0  0  0  0  0  0  0  0  0
   -0.9568    2.0176    1.8242 H   0  0  0  0  0  0  0  0  0  0  0  0
    1.0856    2.7654    3.1628 H   0  0  0  0  0  0  0  0  0  0  0  0
    0.1294    4.6003    3.3010 H   0  0  0  0  0  0  0  0  0  0  0  0
    1.5198    3.6079    6.1571 H   0  0  0  0  0  0  0  0  0  0  0  0
    0.5795    4.7346    7.7556 H   0  0  0  0  0  0  0  0  0  0  0  0
   -1.0489    0.8491    6.1505 H   0  0  0  0  0  0  0  0  0  0  0  0
    2.7392    2.0991    5.1740 H   0  0  0  0  0  0  0  0  0  0  0  0
    2.8767    2.1689    7.5765 H   0  0  0  0  0  0  0  0  0  0  0  0
    3.4967    0.3731    8.7282 H   0  0  0  0  0  0  0  0  0  0  0  0
    4.9186    2.5160    6.4251 H   0  0  0  0  0  0  0  0  0  0  0  0
    5.3707    1.3744    7.6797 H   0  0  0  0  0  0  0  0  0  0  0  0
    5.8601    0.9197    5.0353 H   0  0  0  0  0  0  0  0  0  0  0  0
    4.9964   -1.0113    6.8491 H   0  0  0  0  0  0  0  0  0  0  0  0
    3.9759    0.8671    3.9767 H   0  0  0  0  0  0  0  0  0  0  0  0
    3.0489   -3.1720    5.1268 H   0  0  0  0  0  0  0  0  0  0  0  0
    2.0002   -1.9792    5.8311 H   0  0  0  0  0  0  0  0  0  0  0  0
    3.6650   -2.0808    6.3313 H   0  0  0  0  0  0  0  0  0  0  0  0
    5.3917   -0.9740    3.3874 H   0  0  0  0  0  0  0  0  0  0  0  0
    5.2310   -2.4310    4.3330 H   0  0  0  0  0  0  0  0  0  0  0  0
    5.0621   -2.6755    1.7247 H   0  0  0  0  0  0  0  0  0  0  0  0
    3.8201   -3.4540    2.6962 H   0  0  0  0  0  0  0  0  0  0  0  0
    4.4164    0.2290    1.6556 H   0  0  0  0  0  0  0  0  0  0  0  0
    3.0995    0.1505    0.4918 H   0  0  0  0  0  0  0  0  0  0  0  0
    4.5023   -0.8660    0.2913 H   0  0  0  0  0  0  0  0  0  0  0  0
    1.9456   -1.7818    0.2823 H   0  0  0  0  0  0  0  0  0  0  0  0
    0.8029   -2.0808    2.6252 H   0  0  0  0  0  0  0  0  0  0  0  0
    2.3029    1.0123    2.7047 H   0  0  0  0  0  0  0  0  0  0  0  0
    1.2744   -0.0987    1.0346 H   0  0  0  0  0  0  0  0  0  0  0  0
   -0.9117    0.1492    3.1543 H   0  0  0  0  0  0  0  0  0  0  0  0
  1  2  1  0
  1 36  1  0
  1 37  1  0
  1 38  1  0
  2  7  1  0
  2  3  2  0
  3  4  1  0
  3 39  1  0
  4 34  1  0
  4  5  1  0
  4 40  1  6
  5  6  1  6
  5  7  1  0
  5  9  1  0
  6 41  1  0
  7  8  2  0
  9 10  1  0
  9 11  1  0
  9 42  1  6
 10 43  1  0
 11 12  2  0
 11 13  1  0
 13 15  1  0
 13 14  1  0
 13 44  1  6
 15 14  1  1
 15 34  1  0
 15 16  1  0
 16 22  1  0
 16 17  1  0
 16 45  1  6
 17 18  1  0
 17 19  1  0
 17 46  1  1
 18 47  1  0
 19 20  1  0
 19 48  1  0
 19 49  1  0
 20 21  1  0
 20 22  1  0
 20 50  1  6
 21 51  1  0
 22 23  1  0
 22 52  1  6
 23 30  1  0
 23 24  1  1
 23 25  1  0
 24 53  1  0
 24 54  1  0
 24 55  1  0
 25 26  1  0
 25 56  1  0
 25 57  1  0
 26 27  1  0
 26 58  1  0
 26 59  1  0
 27 28  1  0
 27 29  1  6
 27 30  1  0
 28 60  1  0
 28 61  1  0
 28 62  1  0
 29 63  1  0
 30 31  1  1
 30 32  1  0
 31 64  1  0
 32 33  1  0
 32 34  1  0
 32 65  1  6
 33 66  1  0
 34 35  1  1
 35 67  1  0
M  END
>  <i_m_ct_stereo_status>  (171) 
1

>  <s_m_source_file>  (171) 
/var/tmp/pbs.5076255.sched01/tmppxy1xzy0/80exjuxwr6.sdf

>  <i_m_source_file_index>  (171) 
4

>  <i_lp_mmshare_version>  (171) 
48012

>  <i_f3d_flags>  (171) 
0

>  <s_epik_input>  (171) 
TzFbQ0BIXShbQ0BdMTIzKUMoPU8pW0NASF0oW09IXSlbQ0BAXTQoW09IXSlbQ0BIXShbQ0hdPUMoW0NIM10pQzQ9TylbQ0BAXTMoW09IXSlbQ0BIXShbT0hdKVtDQF01KFtPSF0pW0NAQF0oW0NIM10pKFtDSDJdW0NIMl1bQ0BAXTUoW0NIM10pW09IXSlbQ0BIXTZbQ0BASF0yW0NAQEhdKFtPSF0pW0NIMl1bQ0BIXTZbT0hd

>  <s_epik_cmdline>  (171) 
J2VwaWtfcHl0aG9uJywgJy1waHQnLCAnMi4wJywgJy1waCcsICc3LjAnLCAnLXRuJywgJzgnLCAnLW1hJywgJzIwMCcsICctaW1hZScsICc8aW5maWxlLm1hZT4nLCAnLW9tYWUnLCAnPG91dGZpbGUubWFlPic=

>  <r_epik_Ionization_Penalty>  (171) 
0.00323745

>  <r_epik_Ionization_Penalty_Charging>  (171) 
0

>  <r_epik_Ionization_Penalty_Neutral>  (171) 
0.00323745

>  <r_epik_State_Penalty>  (171) 
0.00224442

>  <r_epik_Charging_Adjusted_Penalty>  (171) 
0.00224442

>  <i_epik_Tot_Q>  (171) 
0

>  <i_epik_Tot_abs_Q>  (171) 
0

>  <s_lp_Force_Field>  (171) 
OPLS3e

>  <r_lp_Energy>  (171) 
87.153

>  <b_lp_Chiralities_Consistent>  (171) 
1

>  <s_lp_Variant>  (171) 
58:0-1

>  <s_i_glide_gridfile>  (171) 
pfpi4k_grid

>  <i_i_glide_lignum>  (171) 
4

>  <i_i_glide_rotatable_bonds>  (171) 
8

>  <r_i_docking_score>  (171) 
-3.38269

>  <r_i_glide_ligand_efficiency>  (171) 
-0.0966483

>  <r_i_glide_ligand_efficiency_sa>  (171) 
-0.316143

>  <r_i_glide_ligand_efficiency_ln>  (171) 
-0.742576

>  <r_i_glide_gscore>  (171) 
-3.38269

>  <r_i_glide_lipo>  (171) 
-0.108589

>  <r_i_glide_hbond>  (171) 
0

>  <r_i_glide_metal>  (171) 
-0

>  <r_i_glide_rewards>  (171) 
-0.523834

>  <r_i_glide_evdw>  (171) 
-26.7029

>  <r_i_glide_ecoul>  (171) 
-9.25303

>  <r_i_glide_erotb>  (171) 
0

>  <r_i_glide_esite>  (171) 
-0.0271672

>  <r_i_glide_emodel>  (171) 
-47.0827

>  <r_i_glide_energy>  (171) 
-35.9559

>  <r_i_glide_einternal>  (171) 
4.8436

>  <r_i_glide_intrahb_reward>  (171) 
-0.5

>  <i_i_glide_confnum>  (171) 
2

>  <i_i_glide_posenum>  (171) 
9

>  <r_i_glide_eff_state_penalty>  (171) 
0

>  <ligand_id>  (171) 
58

>  <original_smiles>  (171) 
CC1=CC2C(O)(C1=O)C(O)C(=O)C1OC13C1C(O)CC(O)C1C1(C)CCC(C)(O)C1(O)C(O)C23O

>  <smiles>  (171) 
[H]OC1([H])C(=O)C2([H])OC23C2([H])C([H])(O[H])C([H])([H])C([H])(O[H])C2([H])C2(C([H])([H])[H])C([H])([H])C([H])([H])C(O[H])(C([H])([H])[H])C2(O[H])C([H])(O[H])C3(O[H])C2([H])C([H])=C(C([H])([H])[H])C(=O)C12O[H]

$$$$
58:0:1
     RDKit          3D

 67 72  0  0  1  0  0  0  0  0999 V2000
   -3.3816    3.1591    2.7650 C   0  0  0  0  0  0  0  0  0  0  0  0
   -2.0629    2.8521    3.4423 C   0  0  0  0  0  0  0  0  0  0  0  0
   -0.9203    2.3880    2.9174 C   0  0  0  0  0  0  0  0  0  0  0  0
    0.2003    2.1650    3.9413 C   0  0  1  0  0  0  0  0  0  0  0  0
   -0.3341    3.0926    5.1285 C   0  0  1  0  0  0  0  0  0  0  0  0
    0.1131    4.3959    4.7687 O   0  0  0  0  0  0  0  0  0  0  0  0
   -1.8431    3.0940    4.8669 C   0  0  0  0  0  0  0  0  0  0  0  0
   -2.6925    3.3096    5.7348 O   0  0  0  0  0  0  0  0  0  0  0  0
    0.1267    2.9428    6.6360 C   0  0  1  0  0  0  0  0  0  0  0  0
   -0.3287    4.0187    7.4448 O   0  0  0  0  0  0  0  0  0  0  0  0
   -0.2130    1.6052    7.3201 C   0  0  0  0  0  0  0  0  0  0  0  0
   -0.3776    1.4849    8.5281 O   0  0  0  0  0  0  0  0  0  0  0  0
   -0.3683    0.4863    6.3764 C   0  0  2  0  0  0  0  0  0  0  0  0
    0.3239   -0.7553    6.3697 O   0  0  0  0  0  0  0  0  0  0  0  0
    0.8963    0.2756    5.5440 C   0  0  2  0  0  0  0  0  0  0  0  0
    2.3808    0.6049    5.9076 C   0  0  1  0  0  0  0  0  0  0  0  0
    2.8069    0.5790    7.3986 C   0  0  1  0  0  0  0  0  0  0  0  0
    2.5402   -0.6471    8.0515 O   0  0  0  0  0  0  0  0  0  0  0  0
    4.3196    0.7582    7.3295 C   0  0  0  0  0  0  0  0  0  0  0  0
    4.7704   -0.0829    6.1332 C   0  0  1  0  0  0  0  0  0  0  0  0
    5.2233   -1.3238    6.6296 O   0  0  0  0  0  0  0  0  0  0  0  0
    3.5409   -0.1379    5.1636 C   0  0  1  0  0  0  0  0  0  0  0  0
    3.2341   -1.4761    4.3863 C   0  0  2  0  0  0  0  0  0  0  0  0
    2.6877   -2.5993    5.3213 C   0  0  0  0  0  0  0  0  0  0  0  0
    4.5648   -2.0259    3.7976 C   0  0  0  0  0  0  0  0  0  0  0  0
    4.2551   -2.5584    2.4108 C   0  0  0  0  0  0  0  0  0  0  0  0
    3.2533   -1.5536    1.8568 C   0  0  1  0  0  0  0  0  0  0  0  0
    4.0179   -0.3361    1.2847 C   0  0  0  0  0  0  0  0  0  0  0  0
    2.6167   -2.2034    0.7568 O   0  0  0  0  0  0  0  0  0  0  0  0
    2.3195   -1.2476    3.0983 C   0  0  1  0  0  0  0  0  0  0  0  0
    1.3079   -2.2369    3.0721 O   0  0  0  0  0  0  0  0  0  0  0  0
    1.5688    0.1409    3.0058 C   0  0  1  0  0  0  0  0  0  0  0  0
    0.8907    0.2349    1.7633 O   0  0  0  0  0  0  0  0  0  0  0  0
    0.5170    0.5954    4.0932 C   0  0  2  0  0  0  0  0  0  0  0  0
   -0.6772   -0.1344    3.8138 O   0  0  0  0  0  0  0  0  0  0  0  0
   -4.1667    2.5773    3.2391 H   0  0  0  0  0  0  0  0  0  0  0  0
   -3.3733    2.8965    1.7098 H   0  0  0  0  0  0  0  0  0  0  0  0
   -3.6334    4.2120    2.8510 H   0  0  0  0  0  0  0  0  0  0  0  0
   -0.7857    2.1535    1.8699 H   0  0  0  0  0  0  0  0  0  0  0  0
    1.1024    2.6356    3.5420 H   0  0  0  0  0  0  0  0  0  0  0  0
    1.0598    4.4189    4.8041 H   0  0  0  0  0  0  0  0  0  0  0  0
    1.2125    3.0367    6.6536 H   0  0  0  0  0  0  0  0  0  0  0  0
   -1.2721    3.9550    7.5325 H   0  0  0  0  0  0  0  0  0  0  0  0
   -1.3706    0.3923    5.9683 H   0  0  0  0  0  0  0  0  0  0  0  0
    2.5067    1.6428    5.6003 H   0  0  0  0  0  0  0  0  0  0  0  0
    2.3731    1.3885    7.9829 H   0  0  0  0  0  0  0  0  0  0  0  0
    2.9968   -1.3392    7.5878 H   0  0  0  0  0  0  0  0  0  0  0  0
    4.5391    1.8083    7.1350 H   0  0  0  0  0  0  0  0  0  0  0  0
    4.8202    0.4978    8.2615 H   0  0  0  0  0  0  0  0  0  0  0  0
    5.6158    0.4009    5.6433 H   0  0  0  0  0  0  0  0  0  0  0  0
    5.9568   -1.1601    7.2080 H   0  0  0  0  0  0  0  0  0  0  0  0
    3.8583    0.5508    4.3805 H   0  0  0  0  0  0  0  0  0  0  0  0
    2.7465   -3.5770    4.8397 H   0  0  0  0  0  0  0  0  0  0  0  0
    1.6459   -2.4684    5.5896 H   0  0  0  0  0  0  0  0  0  0  0  0
    3.2444   -2.6905    6.2500 H   0  0  0  0  0  0  0  0  0  0  0  0
    5.3090   -1.2353    3.6928 H   0  0  0  0  0  0  0  0  0  0  0  0
    5.0248   -2.8026    4.4121 H   0  0  0  0  0  0  0  0  0  0  0  0
    5.1466   -2.6676    1.7902 H   0  0  0  0  0  0  0  0  0  0  0  0
    3.7982   -3.5464    2.4906 H   0  0  0  0  0  0  0  0  0  0  0  0
    4.5446    0.2287    2.0529 H   0  0  0  0  0  0  0  0  0  0  0  0
    3.3612    0.3566    0.7640 H   0  0  0  0  0  0  0  0  0  0  0  0
    4.7667   -0.6616    0.5622 H   0  0  0  0  0  0  0  0  0  0  0  0
    2.0859   -1.5956    0.2464 H   0  0  0  0  0  0  0  0  0  0  0  0
    0.8064   -2.1004    2.2819 H   0  0  0  0  0  0  0  0  0  0  0  0
    2.3331    0.9148    2.9649 H   0  0  0  0  0  0  0  0  0  0  0  0
    1.4239   -0.1204    1.0640 H   0  0  0  0  0  0  0  0  0  0  0  0
   -0.9357    0.1154    2.9360 H   0  0  0  0  0  0  0  0  0  0  0  0
  1  2  1  0
  1 36  1  0
  1 37  1  0
  1 38  1  0
  2  7  1  0
  2  3  2  0
  3  4  1  0
  3 39  1  0
  4 34  1  0
  4  5  1  0
  4 40  1  6
  5  6  1  6
  5  7  1  0
  5  9  1  0
  6 41  1  0
  7  8  2  0
  9 10  1  0
  9 11  1  0
  9 42  1  6
 10 43  1  0
 11 12  2  0
 11 13  1  0
 13 15  1  0
 13 14  1  0
 13 44  1  6
 15 14  1  6
 15 34  1  0
 15 16  1  0
 16 22  1  0
 16 17  1  0
 16 45  1  6
 17 18  1  0
 17 19  1  0
 17 46  1  1
 18 47  1  0
 19 20  1  0
 19 48  1  0
 19 49  1  0
 20 21  1  0
 20 22  1  0
 20 50  1  6
 21 51  1  0
 22 23  1  0
 22 52  1  6
 23 30  1  0
 23 24  1  1
 23 25  1  0
 24 53  1  0
 24 54  1  0
 24 55  1  0
 25 26  1  0
 25 56  1  0
 25 57  1  0
 26 27  1  0
 26 58  1  0
 26 59  1  0
 27 28  1  0
 27 29  1  6
 27 30  1  0
 28 60  1  0
 28 61  1  0
 28 62  1  0
 29 63  1  0
 30 31  1  1
 30 32  1  0
 31 64  1  0
 32 33  1  0
 32 34  1  0
 32 65  1  6
 33 66  1  0
 34 35  1  6
 35 67  1  0
M  END
>  <i_m_ct_stereo_status>  (172) 
1

>  <s_m_source_file>  (172) 
/var/tmp/pbs.5076255.sched01/tmppxy1xzy0/80exjuxwr6.sdf

>  <i_m_source_file_index>  (172) 
4

>  <i_lp_mmshare_version>  (172) 
48012

>  <i_f3d_flags>  (172) 
0

>  <s_epik_input>  (172) 
TzFbQ0BIXShbQ0BdMTIzKUMoPU8pW0NASF0oW09IXSlbQ0BAXTQoW09IXSlbQ0BIXShbQ0hdPUMoW0NIM10pQzQ9TylbQ0BAXTMoW09IXSlbQ0BIXShbT0hdKVtDQF01KFtPSF0pW0NAQF0oW0NIM10pKFtDSDJdW0NIMl1bQ0BAXTUoW0NIM10pW09IXSlbQ0BIXTZbQ0BASF0yW0NAQEhdKFtPSF0pW0NIMl1bQ0BIXTZbT0hd

>  <s_epik_cmdline>  (172) 
J2VwaWtfcHl0aG9uJywgJy1waHQnLCAnMi4wJywgJy1waCcsICc3LjAnLCAnLXRuJywgJzgnLCAnLW1hJywgJzIwMCcsICctaW1hZScsICc8aW5maWxlLm1hZT4nLCAnLW9tYWUnLCAnPG91dGZpbGUubWFlPic=

>  <r_epik_Ionization_Penalty>  (172) 
0.00323745

>  <r_epik_Ionization_Penalty_Charging>  (172) 
0

>  <r_epik_Ionization_Penalty_Neutral>  (172) 
0.00323745

>  <r_epik_State_Penalty>  (172) 
0.00224442

>  <r_epik_Charging_Adjusted_Penalty>  (172) 
0.00224442

>  <i_epik_Tot_Q>  (172) 
0

>  <i_epik_Tot_abs_Q>  (172) 
0

>  <s_lp_Force_Field>  (172) 
OPLS3e

>  <r_lp_Energy>  (172) 
87.153

>  <b_lp_Chiralities_Consistent>  (172) 
1

>  <s_lp_Variant>  (172) 
58:0-1

>  <s_i_glide_gridfile>  (172) 
pfpi4k_grid

>  <i_i_glide_lignum>  (172) 
4

>  <i_i_glide_rotatable_bonds>  (172) 
8

>  <r_i_docking_score>  (172) 
-3.10132

>  <r_i_glide_ligand_efficiency>  (172) 
-0.0886091

>  <r_i_glide_ligand_efficiency_sa>  (172) 
-0.289846

>  <r_i_glide_ligand_efficiency_ln>  (172) 
-0.680808

>  <r_i_glide_gscore>  (172) 
-3.10132

>  <r_i_glide_lipo>  (172) 
-0.129603

>  <r_i_glide_hbond>  (172) 
0

>  <r_i_glide_metal>  (172) 
-0

>  <r_i_glide_rewards>  (172) 
-0.523834

>  <r_i_glide_evdw>  (172) 
-27.5521

>  <r_i_glide_ecoul>  (172) 
-6.96914

>  <r_i_glide_erotb>  (172) 
0

>  <r_i_glide_esite>  (172) 
-0.0249055

>  <r_i_glide_emodel>  (172) 
-45.8677

>  <r_i_glide_energy>  (172) 
-34.5212

>  <r_i_glide_einternal>  (172) 
2.69602

>  <r_i_glide_intrahb_reward>  (172) 
-0.5

>  <i_i_glide_confnum>  (172) 
1

>  <i_i_glide_posenum>  (172) 
23

>  <r_i_glide_eff_state_penalty>  (172) 
0

>  <ligand_id>  (172) 
58

>  <original_smiles>  (172) 
CC1=CC2C(O)(C1=O)C(O)C(=O)C1OC13C1C(O)CC(O)C1C1(C)CCC(C)(O)C1(O)C(O)C23O

>  <smiles>  (172) 
[H]OC1([H])C(=O)C2([H])OC23C2([H])C([H])(O[H])C([H])([H])C([H])(O[H])C2([H])C2(C([H])([H])[H])C([H])([H])C([H])([H])C(O[H])(C([H])([H])[H])C2(O[H])C([H])(O[H])C3(O[H])C2([H])C([H])=C(C([H])([H])[H])C(=O)C12O[H]

$$$$
58:0:2
     RDKit          3D

 67 72  0  0  1  0  0  0  0  0999 V2000
   -3.3601    3.3179    2.7500 C   0  0  0  0  0  0  0  0  0  0  0  0
   -2.1023    2.9425    3.5095 C   0  0  0  0  0  0  0  0  0  0  0  0
   -0.9277    2.4920    3.0506 C   0  0  0  0  0  0  0  0  0  0  0  0
    0.1000    2.1821    4.1451 C   0  0  1  0  0  0  0  0  0  0  0  0
   -0.5172    3.0491    5.3371 C   0  0  1  0  0  0  0  0  0  0  0  0
   -0.0115    4.3604    5.1003 O   0  0  0  0  0  0  0  0  0  0  0  0
   -1.9976    3.1083    4.9550 C   0  0  0  0  0  0  0  0  0  0  0  0
   -2.9122    3.3240    5.7529 O   0  0  0  0  0  0  0  0  0  0  0  0
   -0.1955    2.7969    6.8669 C   0  0  1  0  0  0  0  0  0  0  0  0
   -0.7070    3.8275    7.7010 O   0  0  0  0  0  0  0  0  0  0  0  0
   -0.6166    1.4262    7.4268 C   0  0  0  0  0  0  0  0  0  0  0  0
   -0.8908    1.2286    8.6047 O   0  0  0  0  0  0  0  0  0  0  0  0
   -0.7043    0.3728    6.4024 C   0  0  2  0  0  0  0  0  0  0  0  0
   -0.0403   -0.8825    6.3854 O   0  0  0  0  0  0  0  0  0  0  0  0
    0.6263    0.1782    5.6749 C   0  0  2  0  0  0  0  0  0  0  0  0
    2.0754    0.4569    6.1923 C   0  0  1  0  0  0  0  0  0  0  0  0
    2.3654    0.3300    7.7113 C   0  0  1  0  0  0  0  0  0  0  0  0
    2.0129   -0.9256    8.2578 O   0  0  0  0  0  0  0  0  0  0  0  0
    3.8807    0.4815    7.7871 C   0  0  0  0  0  0  0  0  0  0  0  0
    4.4244   -0.2913    6.5843 C   0  0  1  0  0  0  0  0  0  0  0  0
    4.8130   -1.5683    7.0381 O   0  0  0  0  0  0  0  0  0  0  0  0
    3.2871   -0.2598    5.5079 C   0  0  1  0  0  0  0  0  0  0  0  0
    3.0310   -1.5395    4.6233 C   0  0  2  0  0  0  0  0  0  0  0  0
    2.3898   -2.7075    5.4357 C   0  0  0  0  0  0  0  0  0  0  0  0
    4.3975   -2.0800    4.1146 C   0  0  0  0  0  0  0  0  0  0  0  0
    4.1961   -2.5254    2.6748 C   0  0  0  0  0  0  0  0  0  0  0  0
    3.2492   -1.4700    2.1053 C   0  0  1  0  0  0  0  0  0  0  0  0
    4.0936   -0.2465    1.6715 C   0  0  0  0  0  0  0  0  0  0  0  0
    2.6413   -2.0138    0.9346 O   0  0  0  0  0  0  0  0  0  0  0  0
    2.2278   -1.2144    3.2821 C   0  0  1  0  0  0  0  0  0  0  0  0
    1.1999   -2.1806    3.1393 O   0  0  0  0  0  0  0  0  0  0  0  0
    1.5189    0.1991    3.2048 C   0  0  1  0  0  0  0  0  0  0  0  0
    1.0322    0.4698    1.8989 O   0  0  0  0  0  0  0  0  0  0  0  0
    0.3795    0.6006    4.2184 C   0  0  2  0  0  0  0  0  0  0  0  0
   -0.7875   -0.0918    3.7833 O   0  0  0  0  0  0  0  0  0  0  0  0
   -4.1954    2.7310    3.1106 H   0  0  0  0  0  0  0  0  0  0  0  0
   -3.2588    3.1043    1.6863 H   0  0  0  0  0  0  0  0  0  0  0  0
   -3.5899    4.3757    2.8663 H   0  0  0  0  0  0  0  0  0  0  0  0
   -0.7015    2.3268    2.0055 H   0  0  0  0  0  0  0  0  0  0  0  0
    1.0402    2.6561    3.8568 H   0  0  0  0  0  0  0  0  0  0  0  0
    0.9214    4.3597    5.2545 H   0  0  0  0  0  0  0  0  0  0  0  0
    0.8850    2.8647    6.9859 H   0  0  0  0  0  0  0  0  0  0  0  0
   -1.6558    3.7717    7.7053 H   0  0  0  0  0  0  0  0  0  0  0  0
   -1.6681    0.3243    5.9034 H   0  0  0  0  0  0  0  0  0  0  0  0
    2.2443    1.5095    5.9649 H   0  0  0  0  0  0  0  0  0  0  0  0
    1.8947    1.1107    8.3049 H   0  0  0  0  0  0  0  0  0  0  0  0
    2.5070   -1.6016    7.8047 H   0  0  0  0  0  0  0  0  0  0  0  0
    4.1318    1.5363    7.6814 H   0  0  0  0  0  0  0  0  0  0  0  0
    4.2938    0.1545    8.7403 H   0  0  0  0  0  0  0  0  0  0  0  0
    5.3166    0.2059    6.2031 H   0  0  0  0  0  0  0  0  0  0  0  0
    5.5061   -1.4540    7.6774 H   0  0  0  0  0  0  0  0  0  0  0  0
    3.6848    0.4688    4.8009 H   0  0  0  0  0  0  0  0  0  0  0  0
    2.4752   -3.6554    4.9011 H   0  0  0  0  0  0  0  0  0  0  0  0
    1.3306   -2.5713    5.6219 H   0  0  0  0  0  0  0  0  0  0  0  0
    2.8612   -2.8670    6.4010 H   0  0  0  0  0  0  0  0  0  0  0  0
    5.1617   -1.3009    4.1300 H   0  0  0  0  0  0  0  0  0  0  0  0
    4.7906   -2.9012    4.7176 H   0  0  0  0  0  0  0  0  0  0  0  0
    5.1409   -2.6098    2.1309 H   0  0  0  0  0  0  0  0  0  0  0  0
    3.7270   -3.5096    2.6578 H   0  0  0  0  0  0  0  0  0  0  0  0
    4.5569    0.2619    2.5160 H   0  0  0  0  0  0  0  0  0  0  0  0
    3.5071    0.4978    1.1355 H   0  0  0  0  0  0  0  0  0  0  0  0
    4.9061   -0.5378    1.0045 H   0  0  0  0  0  0  0  0  0  0  0  0
    2.1840   -1.3456    0.4259 H   0  0  0  0  0  0  0  0  0  0  0  0
    0.8090   -2.0668    2.2848 H   0  0  0  0  0  0  0  0  0  0  0  0
    2.2966    0.9491    3.3098 H   0  0  0  0  0  0  0  0  0  0  0  0
    0.9670   -0.3340    1.4000 H   0  0  0  0  0  0  0  0  0  0  0  0
   -0.9968    0.2457    2.9224 H   0  0  0  0  0  0  0  0  0  0  0  0
  1  2  1  0
  1 36  1  0
  1 37  1  0
  1 38  1  0
  2  7  1  0
  2  3  2  0
  3  4  1  0
  3 39  1  0
  4 34  1  0
  4  5  1  0
  4 40  1  6
  5  6  1  6
  5  7  1  0
  5  9  1  0
  6 41  1  0
  7  8  2  0
  9 10  1  0
  9 11  1  0
  9 42  1  6
 10 43  1  0
 11 12  2  0
 11 13  1  0
 13 15  1  0
 13 14  1  0
 13 44  1  6
 15 14  1  6
 15 34  1  0
 15 16  1  0
 16 22  1  0
 16 17  1  0
 16 45  1  6
 17 18  1  0
 17 19  1  0
 17 46  1  1
 18 47  1  0
 19 20  1  0
 19 48  1  0
 19 49  1  0
 20 21  1  0
 20 22  1  0
 20 50  1  6
 21 51  1  0
 22 23  1  0
 22 52  1  6
 23 30  1  0
 23 24  1  1
 23 25  1  0
 24 53  1  0
 24 54  1  0
 24 55  1  0
 25 26  1  0
 25 56  1  0
 25 57  1  0
 26 27  1  0
 26 58  1  0
 26 59  1  0
 27 28  1  0
 27 29  1  6
 27 30  1  0
 28 60  1  0
 28 61  1  0
 28 62  1  0
 29 63  1  0
 30 31  1  6
 30 32  1  0
 31 64  1  0
 32 33  1  0
 32 34  1  0
 32 65  1  1
 33 66  1  0
 34 35  1  6
 35 67  1  0
M  END
>  <i_m_ct_stereo_status>  (173) 
1

>  <s_m_source_file>  (173) 
/var/tmp/pbs.5076255.sched01/tmppxy1xzy0/80exjuxwr6.sdf

>  <i_m_source_file_index>  (173) 
4

>  <i_lp_mmshare_version>  (173) 
48012

>  <i_f3d_flags>  (173) 
0

>  <s_epik_input>  (173) 
TzFbQ0BIXShbQ0BdMTIzKUMoPU8pW0NASF0oW09IXSlbQ0BAXTQoW09IXSlbQ0BIXShbQ0hdPUMoW0NIM10pQzQ9TylbQ0BAXTMoW09IXSlbQ0BIXShbT0hdKVtDQF01KFtPSF0pW0NAQF0oW0NIM10pKFtDSDJdW0NIMl1bQ0BAXTUoW0NIM10pW09IXSlbQ0BIXTZbQ0BASF0yW0NAQEhdKFtPSF0pW0NIMl1bQ0BIXTZbT0hd

>  <s_epik_cmdline>  (173) 
J2VwaWtfcHl0aG9uJywgJy1waHQnLCAnMi4wJywgJy1waCcsICc3LjAnLCAnLXRuJywgJzgnLCAnLW1hJywgJzIwMCcsICctaW1hZScsICc8aW5maWxlLm1hZT4nLCAnLW9tYWUnLCAnPG91dGZpbGUubWFlPic=

>  <r_epik_Ionization_Penalty>  (173) 
0.00323745

>  <r_epik_Ionization_Penalty_Charging>  (173) 
0

>  <r_epik_Ionization_Penalty_Neutral>  (173) 
0.00323745

>  <r_epik_State_Penalty>  (173) 
0.00224442

>  <r_epik_Charging_Adjusted_Penalty>  (173) 
0.00224442

>  <i_epik_Tot_Q>  (173) 
0

>  <i_epik_Tot_abs_Q>  (173) 
0

>  <s_lp_Force_Field>  (173) 
OPLS3e

>  <r_lp_Energy>  (173) 
87.153

>  <b_lp_Chiralities_Consistent>  (173) 
1

>  <s_lp_Variant>  (173) 
58:0-1

>  <s_i_glide_gridfile>  (173) 
pfpi4k_grid

>  <i_i_glide_lignum>  (173) 
4

>  <i_i_glide_rotatable_bonds>  (173) 
8

>  <r_i_docking_score>  (173) 
-3.01621

>  <r_i_glide_ligand_efficiency>  (173) 
-0.0861774

>  <r_i_glide_ligand_efficiency_sa>  (173) 
-0.281892

>  <r_i_glide_ligand_efficiency_ln>  (173) 
-0.662125

>  <r_i_glide_gscore>  (173) 
-3.01621

>  <r_i_glide_lipo>  (173) 
-0.0965874

>  <r_i_glide_hbond>  (173) 
0

>  <r_i_glide_metal>  (173) 
-0

>  <r_i_glide_rewards>  (173) 
-0.523834

>  <r_i_glide_evdw>  (173) 
-27.9359

>  <r_i_glide_ecoul>  (173) 
-6.38982

>  <r_i_glide_erotb>  (173) 
0

>  <r_i_glide_esite>  (173) 
-0.0405216

>  <r_i_glide_emodel>  (173) 
-45.0129

>  <r_i_glide_energy>  (173) 
-34.3257

>  <r_i_glide_einternal>  (173) 
3.00195

>  <r_i_glide_intrahb_reward>  (173) 
-0.5

>  <i_i_glide_confnum>  (173) 
2

>  <i_i_glide_posenum>  (173) 
20

>  <r_i_glide_eff_state_penalty>  (173) 
0

>  <ligand_id>  (173) 
58

>  <original_smiles>  (173) 
CC1=CC2C(O)(C1=O)C(O)C(=O)C1OC13C1C(O)CC(O)C1C1(C)CCC(C)(O)C1(O)C(O)C23O

>  <smiles>  (173) 
[H]OC1([H])C(=O)C2([H])OC23C2([H])C([H])(O[H])C([H])([H])C([H])(O[H])C2([H])C2(C([H])([H])[H])C([H])([H])C([H])([H])C(O[H])(C([H])([H])[H])C2(O[H])C([H])(O[H])C3(O[H])C2([H])C([H])=C(C([H])([H])[H])C(=O)C12O[H]

$$$$
60:0:0
     RDKit          3D

 63 69  0  0  1  0  0  0  0  0999 V2000
    3.7736    3.7134    6.5200 C   0  0  0  0  0  0  0  0  0  0  0  0
    3.1155    2.3191    6.4993 C   0  0  2  0  0  0  0  0  0  0  0  0
    3.4863    1.4105    5.2534 C   0  0  0  0  0  0  0  0  0  0  0  0
    2.4858    0.4535    4.5065 C   0  0  1  0  0  0  0  0  0  0  0  0
    1.8319   -0.4826    5.3372 O   0  0  0  0  0  0  0  0  0  0  0  0
    1.5896    0.9201    3.3164 C   0  0  2  0  0  0  0  0  0  0  0  0
    1.8975    0.1603    2.1612 O   0  0  0  0  0  0  0  0  0  0  0  0
    1.1271    2.3160    2.9054 C   0  0  2  0  0  0  0  0  0  0  0  0
    1.6584    3.5425    3.6230 C   0  0  1  0  0  0  0  0  0  0  0  0
    2.6168    4.3612    2.7386 C   0  0  0  0  0  0  0  0  0  0  0  0
    0.6900    4.4033    4.4260 C   0  0  1  0  0  0  0  0  0  0  0  0
   -0.0219    5.2917    3.5796 O   0  0  0  0  0  0  0  0  0  0  0  0
   -0.1995    3.6929    5.4966 C   0  0  1  0  0  0  0  0  0  0  0  0
   -1.3576    2.7589    4.9800 C   0  0  2  0  0  0  0  0  0  0  0  0
   -2.0780    3.3155    3.7182 C   0  0  0  0  0  0  0  0  0  0  0  0
   -2.5034    2.7139    6.0710 C   0  0  0  0  0  0  0  0  0  0  0  0
   -2.4862    3.7443    7.0702 O   0  0  0  0  0  0  0  0  0  0  0  0
   -1.5690    3.6540    8.1713 C   0  0  2  0  0  0  0  0  0  0  0  0
   -0.7675    4.9626    8.2942 C   0  0  0  0  0  0  0  0  0  0  0  0
    0.6296    4.6748    7.6803 C   0  0  0  0  0  0  0  0  0  0  0  0
    0.4892    3.3196    6.9134 C   0  0  2  0  0  0  0  0  0  0  0  0
    1.6775    2.2675    7.0965 C   0  0  2  0  0  0  0  0  0  0  0  0
    1.6997    1.9873    8.5929 C   0  0  2  0  0  0  0  0  0  0  0  0
    0.9207    0.8961    9.0823 O   0  0  0  0  0  0  0  0  0  0  0  0
    0.3033    2.1866    9.1035 C   0  0  2  0  0  0  0  0  0  0  0  0
   -0.4935    2.6217    7.8993 C   0  0  1  0  0  0  0  0  0  0  0  0
   -0.7627    1.3553    4.6315 C   0  0  1  0  0  0  0  0  0  0  0  0
   -1.7845    0.3855    4.4820 O   0  0  0  0  0  0  0  0  0  0  0  0
    0.1027    1.2859    3.3644 C   0  0  2  0  0  0  0  0  0  0  0  0
    3.3074    4.4247    5.8439 H   0  0  0  0  0  0  0  0  0  0  0  0
    4.8278    3.6529    6.2488 H   0  0  0  0  0  0  0  0  0  0  0  0
    3.7264    4.1505    7.5187 H   0  0  0  0  0  0  0  0  0  0  0  0
    3.6946    1.8076    7.2692 H   0  0  0  0  0  0  0  0  0  0  0  0
    4.0057    2.0044    4.5056 H   0  0  0  0  0  0  0  0  0  0  0  0
    4.2824    0.7566    5.6103 H   0  0  0  0  0  0  0  0  0  0  0  0
    3.1946   -0.2127    4.0162 H   0  0  0  0  0  0  0  0  0  0  0  0
    1.4898   -1.1705    4.7855 H   0  0  0  0  0  0  0  0  0  0  0  0
    1.2909    0.3747    1.4664 H   0  0  0  0  0  0  0  0  0  0  0  0
    1.0455    2.5049    1.8369 H   0  0  0  0  0  0  0  0  0  0  0  0
    2.2768    3.1839    4.3918 H   0  0  0  0  0  0  0  0  0  0  0  0
    2.1096    4.8125    1.8866 H   0  0  0  0  0  0  0  0  0  0  0  0
    3.4101    3.7329    2.3418 H   0  0  0  0  0  0  0  0  0  0  0  0
    3.0921    5.1643    3.2991 H   0  0  0  0  0  0  0  0  0  0  0  0
    1.3307    5.0867    4.9792 H   0  0  0  0  0  0  0  0  0  0  0  0
    0.1201    5.0206    2.6751 H   0  0  0  0  0  0  0  0  0  0  0  0
   -0.7799    4.5788    5.7362 H   0  0  0  0  0  0  0  0  0  0  0  0
   -2.9261    2.6955    3.4210 H   0  0  0  0  0  0  0  0  0  0  0  0
   -1.4361    3.3774    2.8408 H   0  0  0  0  0  0  0  0  0  0  0  0
   -2.4666    4.3152    3.9106 H   0  0  0  0  0  0  0  0  0  0  0  0
   -3.4621    2.8871    5.5873 H   0  0  0  0  0  0  0  0  0  0  0  0
   -2.6284    1.7306    6.5275 H   0  0  0  0  0  0  0  0  0  0  0  0
   -2.1316    3.4335    9.0769 H   0  0  0  0  0  0  0  0  0  0  0  0
   -1.2817    5.7833    7.7926 H   0  0  0  0  0  0  0  0  0  0  0  0
   -0.6610    5.2524    9.3400 H   0  0  0  0  0  0  0  0  0  0  0  0
    0.9583    5.5084    7.0597 H   0  0  0  0  0  0  0  0  0  0  0  0
    1.3621    4.6108    8.4877 H   0  0  0  0  0  0  0  0  0  0  0  0
    1.2985    1.3317    6.7340 H   0  0  0  0  0  0  0  0  0  0  0  0
    2.5251    2.3447    9.2123 H   0  0  0  0  0  0  0  0  0  0  0  0
    0.1457    2.6564   10.0761 H   0  0  0  0  0  0  0  0  0  0  0  0
   -0.8638    1.6703    7.5321 H   0  0  0  0  0  0  0  0  0  0  0  0
   -0.1875    0.9885    5.4613 H   0  0  0  0  0  0  0  0  0  0  0  0
   -2.3602    0.6358    3.7719 H   0  0  0  0  0  0  0  0  0  0  0  0
   -0.4890    0.9310    2.5230 H   0  0  0  0  0  0  0  0  0  0  0  0
  1  2  1  0
  1 30  1  0
  1 31  1  0
  1 32  1  0
  2 22  1  0
  2  3  1  0
  2 33  1  1
  3  4  1  0
  3 34  1  0
  3 35  1  0
  4  5  1  0
  4  6  1  0
  4 36  1  6
  5 37  1  0
  6 29  1  0
  6  7  1  6
  6  8  1  0
  7 38  1  0
  8 29  1  0
  8  9  1  0
  8 39  1  6
  9 10  1  0
  9 11  1  0
  9 40  1  1
 10 41  1  0
 10 42  1  0
 10 43  1  0
 11 12  1  0
 11 13  1  0
 11 44  1  1
 12 45  1  0
 13 21  1  0
 13 14  1  0
 13 46  1  1
 14 15  1  6
 14 16  1  0
 14 27  1  0
 15 47  1  0
 15 48  1  0
 15 49  1  0
 16 17  1  0
 16 50  1  0
 16 51  1  0
 17 18  1  0
 18 26  1  0
 18 19  1  0
 18 52  1  1
 19 20  1  0
 19 53  1  0
 19 54  1  0
 21 20  1  1
 20 55  1  0
 20 56  1  0
 21 26  1  0
 21 22  1  0
 22 23  1  0
 22 57  1  6
 23 25  1  0
 23 24  1  0
 23 58  1  1
 24 25  1  0
 25 26  1  0
 25 59  1  1
 26 60  1  6
 27 28  1  0
 27 29  1  0
 27 61  1  1
 28 62  1  0
 29 63  1  6
M  END
>  <i_m_ct_stereo_status>  (174) 
1

>  <s_m_source_file>  (174) 
/var/tmp/pbs.5076255.sched01/tmppxy1xzy0/80exjuxwr6.sdf

>  <i_m_source_file_index>  (174) 
6

>  <i_lp_mmshare_version>  (174) 
48012

>  <i_f3d_flags>  (174) 
0

>  <s_epik_input>  (174) 
W09IXVtDQEBIXTFbQ0BIXShbQ0gzXSlbQ0BIXShbQ0BASF0yW0NAQEhdM1tPSF0pW0NAQF0yKFtPSF0pW0NASF0oW09IXSlbQ0gyXVtDQEBIXShbQ0gzXSlbQ0BIXTRbQ0BIXShPNSlbQ0BIXTVbQ0BIXTZbQ0BASF0oW0NIMl1bQ0gyXTcpT1tDSDJdW0NAXTMoW0NASF0xW0NAXTQ2NylbQ0gzXQ==

>  <s_epik_cmdline>  (174) 
J2VwaWtfcHl0aG9uJywgJy1waHQnLCAnMi4wJywgJy1waCcsICc3LjAnLCAnLXRuJywgJzgnLCAnLW1hJywgJzIwMCcsICctaW1hZScsICc8aW5maWxlLm1hZT4nLCAnLW9tYWUnLCAnPG91dGZpbGUubWFlPic=

>  <r_lp_tautomer_probability>  (174) 
1

>  <r_epik_Ionization_Penalty>  (174) 
1.86444e-06

>  <r_epik_Ionization_Penalty_Charging>  (174) 
0

>  <r_epik_Ionization_Penalty_Neutral>  (174) 
1.86444e-06

>  <r_epik_State_Penalty>  (174) 
-0

>  <r_epik_Charging_Adjusted_Penalty>  (174) 
0

>  <i_epik_Tot_Q>  (174) 
0

>  <i_epik_Tot_abs_Q>  (174) 
0

>  <s_lp_Force_Field>  (174) 
OPLS3e

>  <r_lp_Energy>  (174) 
133.568

>  <b_lp_Chiralities_Consistent>  (174) 
1

>  <s_lp_Variant>  (174) 
60:0-1

>  <s_i_glide_gridfile>  (174) 
pfpi4k_grid

>  <i_i_glide_lignum>  (174) 
6

>  <i_i_glide_rotatable_bonds>  (174) 
4

>  <r_i_docking_score>  (174) 
-3.6516

>  <r_i_glide_ligand_efficiency>  (174) 
-0.125917

>  <r_i_glide_ligand_efficiency_sa>  (174) 
-0.386858

>  <r_i_glide_ligand_efficiency_ln>  (174) 
-0.836124

>  <r_i_glide_gscore>  (174) 
-3.6516

>  <r_i_glide_lipo>  (174) 
-0.109611

>  <r_i_glide_hbond>  (174) 
-0.439294

>  <r_i_glide_metal>  (174) 
-0

>  <r_i_glide_rewards>  (174) 
-0.637415

>  <r_i_glide_evdw>  (174) 
-24.7234

>  <r_i_glide_ecoul>  (174) 
-8.19407

>  <r_i_glide_erotb>  (174) 
0

>  <r_i_glide_esite>  (174) 
0

>  <r_i_glide_emodel>  (174) 
-40.5143

>  <r_i_glide_energy>  (174) 
-32.9175

>  <r_i_glide_einternal>  (174) 
1.83743

>  <r_i_glide_intrahb_reward>  (174) 
-0

>  <i_i_glide_confnum>  (174) 
1

>  <i_i_glide_posenum>  (174) 
10

>  <r_i_glide_eff_state_penalty>  (174) 
0

>  <ligand_id>  (174) 
60

>  <original_smiles>  (174) 
CC1CC(O)C2(O)C3C(C)C(O)C4C(C)(COC5CCC46C1C1OC1C56)C(O)C32

>  <smiles>  (174) 
[H]OC1([H])C([H])(C([H])([H])[H])C2([H])C3([H])C([H])(O[H])C4(C([H])([H])[H])C([H])([H])OC5([H])C([H])([H])C([H])([H])C6(C5([H])C5([H])OC5([H])C6([H])C([H])(C([H])([H])[H])C([H])([H])C([H])(O[H])C32O[H])C14[H]

$$$$
60:0:1
     RDKit          3D

 63 69  0  0  1  0  0  0  0  0999 V2000
    3.7706    3.7185    6.5096 C   0  0  0  0  0  0  0  0  0  0  0  0
    3.1161    2.3213    6.4905 C   0  0  2  0  0  0  0  0  0  0  0  0
    3.4890    1.4136    5.2430 C   0  0  0  0  0  0  0  0  0  0  0  0
    2.4834    0.4488    4.4934 C   0  0  1  0  0  0  0  0  0  0  0  0
    1.8215   -0.4648    5.3536 O   0  0  0  0  0  0  0  0  0  0  0  0
    1.5925    0.9268    3.3281 C   0  0  2  0  0  0  0  0  0  0  0  0
    1.9248    0.2060    2.1263 O   0  0  0  0  0  0  0  0  0  0  0  0
    1.1198    2.3191    2.9000 C   0  0  2  0  0  0  0  0  0  0  0  0
    1.6560    3.5430    3.6086 C   0  0  1  0  0  0  0  0  0  0  0  0
    2.6100    4.3616    2.7273 C   0  0  0  0  0  0  0  0  0  0  0  0
    0.6874    4.4062    4.4136 C   0  0  1  0  0  0  0  0  0  0  0  0
   -0.0279    5.2909    3.5666 O   0  0  0  0  0  0  0  0  0  0  0  0
   -0.2039    3.6933    5.4897 C   0  0  1  0  0  0  0  0  0  0  0  0
   -1.3589    2.7597    4.9746 C   0  0  2  0  0  0  0  0  0  0  0  0
   -2.0787    3.3126    3.7105 C   0  0  0  0  0  0  0  0  0  0  0  0
   -2.5068    2.7125    6.0614 C   0  0  0  0  0  0  0  0  0  0  0  0
   -2.4856    3.7403    7.0657 O   0  0  0  0  0  0  0  0  0  0  0  0
   -1.5707    3.6564    8.1599 C   0  0  2  0  0  0  0  0  0  0  0  0
   -0.7659    4.9657    8.2803 C   0  0  0  0  0  0  0  0  0  0  0  0
    0.6261    4.6760    7.6703 C   0  0  0  0  0  0  0  0  0  0  0  0
    0.4867    3.3232    6.9027 C   0  0  2  0  0  0  0  0  0  0  0  0
    1.6816    2.2767    7.0912 C   0  0  2  0  0  0  0  0  0  0  0  0
    1.7007    1.9995    8.5706 C   0  0  2  0  0  0  0  0  0  0  0  0
    0.9244    0.8912    9.0716 O   0  0  0  0  0  0  0  0  0  0  0  0
    0.2974    2.1938    9.0872 C   0  0  2  0  0  0  0  0  0  0  0  0
   -0.4946    2.6299    7.8953 C   0  0  1  0  0  0  0  0  0  0  0  0
   -0.7603    1.3578    4.6262 C   0  0  1  0  0  0  0  0  0  0  0  0
   -1.7848    0.3842    4.4804 O   0  0  0  0  0  0  0  0  0  0  0  0
    0.1000    1.2855    3.3571 C   0  0  2  0  0  0  0  0  0  0  0  0
    3.3070    4.4281    5.8315 H   0  0  0  0  0  0  0  0  0  0  0  0
    4.8292    3.6577    6.2366 H   0  0  0  0  0  0  0  0  0  0  0  0
    3.7239    4.1529    7.5044 H   0  0  0  0  0  0  0  0  0  0  0  0
    3.6932    1.8127    7.2577 H   0  0  0  0  0  0  0  0  0  0  0  0
    4.0029    2.0085    4.4919 H   0  0  0  0  0  0  0  0  0  0  0  0
    4.2881    0.7636    5.5961 H   0  0  0  0  0  0  0  0  0  0  0  0
    3.1817   -0.2203    4.0009 H   0  0  0  0  0  0  0  0  0  0  0  0
    2.4616   -0.9592    5.8318 H   0  0  0  0  0  0  0  0  0  0  0  0
    1.2667    0.3407    1.4779 H   0  0  0  0  0  0  0  0  0  0  0  0
    1.0461    2.5014    1.8313 H   0  0  0  0  0  0  0  0  0  0  0  0
    2.2747    3.1871    4.3873 H   0  0  0  0  0  0  0  0  0  0  0  0
    2.1090    4.8136    1.8786 H   0  0  0  0  0  0  0  0  0  0  0  0
    3.4074    3.7344    2.3314 H   0  0  0  0  0  0  0  0  0  0  0  0
    3.0926    5.1666    3.2896 H   0  0  0  0  0  0  0  0  0  0  0  0
    1.3281    5.0869    4.9685 H   0  0  0  0  0  0  0  0  0  0  0  0
    0.1198    5.0259    2.6670 H   0  0  0  0  0  0  0  0  0  0  0  0
   -0.7832    4.5781    5.7280 H   0  0  0  0  0  0  0  0  0  0  0  0
   -2.9286    2.6925    3.4126 H   0  0  0  0  0  0  0  0  0  0  0  0
   -1.4389    3.3752    2.8315 H   0  0  0  0  0  0  0  0  0  0  0  0
   -2.4709    4.3116    3.9022 H   0  0  0  0  0  0  0  0  0  0  0  0
   -3.4593    2.8898    5.5784 H   0  0  0  0  0  0  0  0  0  0  0  0
   -2.6291    1.7319    6.5163 H   0  0  0  0  0  0  0  0  0  0  0  0
   -2.1268    3.4359    9.0735 H   0  0  0  0  0  0  0  0  0  0  0  0
   -1.2834    5.7851    7.7804 H   0  0  0  0  0  0  0  0  0  0  0  0
   -0.6604    5.2586    9.3282 H   0  0  0  0  0  0  0  0  0  0  0  0
    0.9570    5.5113    7.0457 H   0  0  0  0  0  0  0  0  0  0  0  0
    1.3616    4.6156    8.4772 H   0  0  0  0  0  0  0  0  0  0  0  0
    1.2933    1.3426    6.7283 H   0  0  0  0  0  0  0  0  0  0  0  0
    2.5249    2.3498    9.2055 H   0  0  0  0  0  0  0  0  0  0  0  0
    0.1493    2.6567   10.0677 H   0  0  0  0  0  0  0  0  0  0  0  0
   -0.8653    1.6707    7.5230 H   0  0  0  0  0  0  0  0  0  0  0  0
   -0.1856    0.9892    5.4552 H   0  0  0  0  0  0  0  0  0  0  0  0
   -2.3554    0.6263    3.7729 H   0  0  0  0  0  0  0  0  0  0  0  0
   -0.4925    0.9242    2.5179 H   0  0  0  0  0  0  0  0  0  0  0  0
  1  2  1  0
  1 30  1  0
  1 31  1  0
  1 32  1  0
  2 22  1  0
  2  3  1  0
  2 33  1  1
  3  4  1  0
  3 34  1  0
  3 35  1  0
  4  5  1  0
  4  6  1  0
  4 36  1  6
  5 37  1  0
  6 29  1  0
  6  7  1  6
  6  8  1  0
  7 38  1  0
  8 29  1  0
  8  9  1  0
  8 39  1  6
  9 10  1  0
  9 11  1  0
  9 40  1  1
 10 41  1  0
 10 42  1  0
 10 43  1  0
 11 12  1  0
 11 13  1  0
 11 44  1  1
 12 45  1  0
 13 21  1  0
 13 14  1  0
 13 46  1  1
 14 15  1  6
 14 16  1  0
 14 27  1  0
 15 47  1  0
 15 48  1  0
 15 49  1  0
 16 17  1  0
 16 50  1  0
 16 51  1  0
 17 18  1  0
 18 26  1  0
 18 19  1  0
 18 52  1  1
 19 20  1  0
 19 53  1  0
 19 54  1  0
 21 20  1  1
 20 55  1  0
 20 56  1  0
 21 26  1  0
 21 22  1  0
 22 23  1  0
 22 57  1  6
 23 25  1  0
 23 24  1  0
 23 58  1  1
 24 25  1  0
 25 26  1  0
 25 59  1  1
 26 60  1  6
 27 28  1  0
 27 29  1  0
 27 61  1  1
 28 62  1  0
 29 63  1  6
M  END
>  <i_m_ct_stereo_status>  (175) 
1

>  <s_m_source_file>  (175) 
/var/tmp/pbs.5076255.sched01/tmppxy1xzy0/80exjuxwr6.sdf

>  <i_m_source_file_index>  (175) 
6

>  <i_lp_mmshare_version>  (175) 
48012

>  <i_f3d_flags>  (175) 
0

>  <s_epik_input>  (175) 
W09IXVtDQEBIXTFbQ0BIXShbQ0gzXSlbQ0BIXShbQ0BASF0yW0NAQEhdM1tPSF0pW0NAQF0yKFtPSF0pW0NASF0oW09IXSlbQ0gyXVtDQEBIXShbQ0gzXSlbQ0BIXTRbQ0BIXShPNSlbQ0BIXTVbQ0BIXTZbQ0BASF0oW0NIMl1bQ0gyXTcpT1tDSDJdW0NAXTMoW0NASF0xW0NAXTQ2NylbQ0gzXQ==

>  <s_epik_cmdline>  (175) 
J2VwaWtfcHl0aG9uJywgJy1waHQnLCAnMi4wJywgJy1waCcsICc3LjAnLCAnLXRuJywgJzgnLCAnLW1hJywgJzIwMCcsICctaW1hZScsICc8aW5maWxlLm1hZT4nLCAnLW9tYWUnLCAnPG91dGZpbGUubWFlPic=

>  <r_lp_tautomer_probability>  (175) 
1

>  <r_epik_Ionization_Penalty>  (175) 
1.86444e-06

>  <r_epik_Ionization_Penalty_Charging>  (175) 
0

>  <r_epik_Ionization_Penalty_Neutral>  (175) 
1.86444e-06

>  <r_epik_State_Penalty>  (175) 
-0

>  <r_epik_Charging_Adjusted_Penalty>  (175) 
0

>  <i_epik_Tot_Q>  (175) 
0

>  <i_epik_Tot_abs_Q>  (175) 
0

>  <s_lp_Force_Field>  (175) 
OPLS3e

>  <r_lp_Energy>  (175) 
133.568

>  <b_lp_Chiralities_Consistent>  (175) 
1

>  <s_lp_Variant>  (175) 
60:0-1

>  <s_i_glide_gridfile>  (175) 
pfpi4k_grid

>  <i_i_glide_lignum>  (175) 
6

>  <i_i_glide_rotatable_bonds>  (175) 
4

>  <r_i_docking_score>  (175) 
-3.56147

>  <r_i_glide_ligand_efficiency>  (175) 
-0.122809

>  <r_i_glide_ligand_efficiency_sa>  (175) 
-0.377309

>  <r_i_glide_ligand_efficiency_ln>  (175) 
-0.815486

>  <r_i_glide_gscore>  (175) 
-3.56147

>  <r_i_glide_lipo>  (175) 
-0.108482

>  <r_i_glide_hbond>  (175) 
-0.441881

>  <r_i_glide_metal>  (175) 
-0

>  <r_i_glide_rewards>  (175) 
-0.637415

>  <r_i_glide_evdw>  (175) 
-24.7124

>  <r_i_glide_ecoul>  (175) 
-7.58713

>  <r_i_glide_erotb>  (175) 
0

>  <r_i_glide_esite>  (175) 
0

>  <r_i_glide_emodel>  (175) 
-39.62

>  <r_i_glide_energy>  (175) 
-32.2995

>  <r_i_glide_einternal>  (175) 
1.86212

>  <r_i_glide_intrahb_reward>  (175) 
-0

>  <i_i_glide_confnum>  (175) 
2

>  <i_i_glide_posenum>  (175) 
23

>  <r_i_glide_eff_state_penalty>  (175) 
0

>  <ligand_id>  (175) 
60

>  <original_smiles>  (175) 
CC1CC(O)C2(O)C3C(C)C(O)C4C(C)(COC5CCC46C1C1OC1C56)C(O)C32

>  <smiles>  (175) 
[H]OC1([H])C([H])(C([H])([H])[H])C2([H])C3([H])C([H])(O[H])C4(C([H])([H])[H])C([H])([H])OC5([H])C([H])([H])C([H])([H])C6(C5([H])C5([H])OC5([H])C6([H])C([H])(C([H])([H])[H])C([H])([H])C([H])(O[H])C32O[H])C14[H]

$$$$
60:0:2
     RDKit          3D

 63 69  0  0  1  0  0  0  0  0999 V2000
    2.0627   -0.0987    7.9722 C   0  0  0  0  0  0  0  0  0  0  0  0
    0.7814   -0.0819    7.1164 C   0  0  2  0  0  0  0  0  0  0  0  0
    0.8161   -0.9869    5.8112 C   0  0  0  0  0  0  0  0  0  0  0  0
    0.1748   -0.6029    4.4247 C   0  0  1  0  0  0  0  0  0  0  0  0
   -1.1962   -0.2658    4.4972 O   0  0  0  0  0  0  0  0  0  0  0  0
    0.9463    0.2021    3.3252 C   0  0  2  0  0  0  0  0  0  0  0  0
    1.1299   -0.5897    2.1657 O   0  0  0  0  0  0  0  0  0  0  0  0
    2.1661    1.1204    3.4346 C   0  0  2  0  0  0  0  0  0  0  0  0
    2.9105    1.2487    4.7486 C   0  0  1  0  0  0  0  0  0  0  0  0
    4.2964    0.5758    4.6942 C   0  0  0  0  0  0  0  0  0  0  0  0
    2.9107    2.5965    5.4649 C   0  0  1  0  0  0  0  0  0  0  0  0
    3.8938    3.4517    4.9192 O   0  0  0  0  0  0  0  0  0  0  0  0
    1.5338    3.2909    5.7221 C   0  0  1  0  0  0  0  0  0  0  0  0
    0.7605    3.8721    4.4799 C   0  0  2  0  0  0  0  0  0  0  0  0
    1.7041    4.5360    3.4379 C   0  0  0  0  0  0  0  0  0  0  0  0
   -0.1797    5.0583    4.9469 C   0  0  0  0  0  0  0  0  0  0  0  0
    0.1204    5.6359    6.2335 O   0  0  0  0  0  0  0  0  0  0  0  0
   -0.2920    4.9483    7.4309 C   0  0  2  0  0  0  0  0  0  0  0  0
    0.9022    4.7795    8.3898 C   0  0  0  0  0  0  0  0  0  0  0  0
    1.3723    3.3066    8.2508 C   0  0  0  0  0  0  0  0  0  0  0  0
    0.6602    2.7526    6.9747 C   0  0  2  0  0  0  0  0  0  0  0  0
    0.0426    1.2859    7.0865 C   0  0  2  0  0  0  0  0  0  0  0  0
   -0.9724    1.4030    8.2139 C   0  0  2  0  0  0  0  0  0  0  0  0
   -2.3180    1.7130    7.8663 O   0  0  0  0  0  0  0  0  0  0  0  0
   -1.4717    2.8124    8.2246 C   0  0  2  0  0  0  0  0  0  0  0  0
   -0.6885    3.5134    7.1366 C   0  0  1  0  0  0  0  0  0  0  0  0
   -0.0158    2.7098    3.7860 C   0  0  1  0  0  0  0  0  0  0  0  0
   -0.9869    3.2169    2.8984 O   0  0  0  0  0  0  0  0  0  0  0  0
    0.8241    1.6952    3.0038 C   0  0  2  0  0  0  0  0  0  0  0  0
    2.8700    0.4995    7.5586 H   0  0  0  0  0  0  0  0  0  0  0  0
    2.4420   -1.1144    8.0920 H   0  0  0  0  0  0  0  0  0  0  0  0
    1.8669    0.2872    8.9737 H   0  0  0  0  0  0  0  0  0  0  0  0
    0.1186   -0.6869    7.7344 H   0  0  0  0  0  0  0  0  0  0  0  0
    1.8327   -1.3339    5.6332 H   0  0  0  0  0  0  0  0  0  0  0  0
    0.3204   -1.9146    6.1008 H   0  0  0  0  0  0  0  0  0  0  0  0
    0.0910   -1.5924    3.9741 H   0  0  0  0  0  0  0  0  0  0  0  0
   -1.3001    0.6211    4.1804 H   0  0  0  0  0  0  0  0  0  0  0  0
    1.0114   -0.0637    1.3835 H   0  0  0  0  0  0  0  0  0  0  0  0
    2.8669    1.0966    2.6014 H   0  0  0  0  0  0  0  0  0  0  0  0
    2.3802    0.6700    5.4448 H   0  0  0  0  0  0  0  0  0  0  0  0
    4.9718    1.0908    4.0124 H   0  0  0  0  0  0  0  0  0  0  0  0
    4.2179   -0.4593    4.3629 H   0  0  0  0  0  0  0  0  0  0  0  0
    4.7678    0.5678    5.6772 H   0  0  0  0  0  0  0  0  0  0  0  0
    3.3310    2.3898    6.4482 H   0  0  0  0  0  0  0  0  0  0  0  0
    3.7094    3.5745    3.9993 H   0  0  0  0  0  0  0  0  0  0  0  0
    1.9595    4.2133    6.1055 H   0  0  0  0  0  0  0  0  0  0  0  0
    1.1444    5.0088    2.6304 H   0  0  0  0  0  0  0  0  0  0  0  0
    2.3803    3.8387    2.9453 H   0  0  0  0  0  0  0  0  0  0  0  0
    2.3005    5.3249    3.8975 H   0  0  0  0  0  0  0  0  0  0  0  0
   -0.0904    5.8881    4.2463 H   0  0  0  0  0  0  0  0  0  0  0  0
   -1.2399    4.8225    4.8671 H   0  0  0  0  0  0  0  0  0  0  0  0
   -1.1076    5.5038    7.8933 H   0  0  0  0  0  0  0  0  0  0  0  0
    1.6922    5.4906    8.1494 H   0  0  0  0  0  0  0  0  0  0  0  0
    0.6040    4.9774    9.4201 H   0  0  0  0  0  0  0  0  0  0  0  0
    2.4594    3.2533    8.2153 H   0  0  0  0  0  0  0  0  0  0  0  0
    1.0889    2.7552    9.1500 H   0  0  0  0  0  0  0  0  0  0  0  0
   -0.6170    1.1881    6.2484 H   0  0  0  0  0  0  0  0  0  0  0  0
   -0.7996    0.9089    9.1729 H   0  0  0  0  0  0  0  0  0  0  0  0
   -1.6651    3.3046    9.1803 H   0  0  0  0  0  0  0  0  0  0  0  0
   -1.3536    3.3947    6.2891 H   0  0  0  0  0  0  0  0  0  0  0  0
   -0.5989    2.1855    4.5197 H   0  0  0  0  0  0  0  0  0  0  0  0
   -0.5515    3.6463    2.1532 H   0  0  0  0  0  0  0  0  0  0  0  0
    0.8295    1.9438    1.9423 H   0  0  0  0  0  0  0  0  0  0  0  0
  1  2  1  0
  1 30  1  0
  1 31  1  0
  1 32  1  0
  2 22  1  0
  2  3  1  0
  2 33  1  1
  3  4  1  0
  3 34  1  0
  3 35  1  0
  4  5  1  0
  4  6  1  0
  4 36  1  6
  5 37  1  0
  6 29  1  0
  6  7  1  6
  6  8  1  0
  7 38  1  0
  8 29  1  0
  8  9  1  0
  8 39  1  6
  9 10  1  0
  9 11  1  0
  9 40  1  1
 10 41  1  0
 10 42  1  0
 10 43  1  0
 11 12  1  0
 11 13  1  0
 11 44  1  1
 12 45  1  0
 13 21  1  0
 13 14  1  0
 13 46  1  1
 14 15  1  6
 14 16  1  0
 14 27  1  0
 15 47  1  0
 15 48  1  0
 15 49  1  0
 16 17  1  0
 16 50  1  0
 16 51  1  0
 17 18  1  0
 18 26  1  0
 18 19  1  0
 18 52  1  1
 19 20  1  0
 19 53  1  0
 19 54  1  0
 21 20  1  1
 20 55  1  0
 20 56  1  0
 21 26  1  0
 21 22  1  0
 22 23  1  0
 22 57  1  6
 23 25  1  0
 23 24  1  0
 23 58  1  1
 24 25  1  0
 25 26  1  0
 25 59  1  1
 26 60  1  6
 27 28  1  0
 27 29  1  0
 27 61  1  1
 28 62  1  0
 29 63  1  6
M  END
>  <i_m_ct_stereo_status>  (176) 
1

>  <s_m_source_file>  (176) 
/var/tmp/pbs.5076255.sched01/tmppxy1xzy0/80exjuxwr6.sdf

>  <i_m_source_file_index>  (176) 
6

>  <i_lp_mmshare_version>  (176) 
48012

>  <i_f3d_flags>  (176) 
0

>  <s_epik_input>  (176) 
W09IXVtDQEBIXTFbQ0BIXShbQ0gzXSlbQ0BIXShbQ0BASF0yW0NAQEhdM1tPSF0pW0NAQF0yKFtPSF0pW0NASF0oW09IXSlbQ0gyXVtDQEBIXShbQ0gzXSlbQ0BIXTRbQ0BIXShPNSlbQ0BIXTVbQ0BIXTZbQ0BASF0oW0NIMl1bQ0gyXTcpT1tDSDJdW0NAXTMoW0NASF0xW0NAXTQ2NylbQ0gzXQ==

>  <s_epik_cmdline>  (176) 
J2VwaWtfcHl0aG9uJywgJy1waHQnLCAnMi4wJywgJy1waCcsICc3LjAnLCAnLXRuJywgJzgnLCAnLW1hJywgJzIwMCcsICctaW1hZScsICc8aW5maWxlLm1hZT4nLCAnLW9tYWUnLCAnPG91dGZpbGUubWFlPic=

>  <r_lp_tautomer_probability>  (176) 
1

>  <r_epik_Ionization_Penalty>  (176) 
1.86444e-06

>  <r_epik_Ionization_Penalty_Charging>  (176) 
0

>  <r_epik_Ionization_Penalty_Neutral>  (176) 
1.86444e-06

>  <r_epik_State_Penalty>  (176) 
-0

>  <r_epik_Charging_Adjusted_Penalty>  (176) 
0

>  <i_epik_Tot_Q>  (176) 
0

>  <i_epik_Tot_abs_Q>  (176) 
0

>  <s_lp_Force_Field>  (176) 
OPLS3e

>  <r_lp_Energy>  (176) 
133.568

>  <b_lp_Chiralities_Consistent>  (176) 
1

>  <s_lp_Variant>  (176) 
60:0-1

>  <s_i_glide_gridfile>  (176) 
pfpi4k_grid

>  <i_i_glide_lignum>  (176) 
6

>  <i_i_glide_rotatable_bonds>  (176) 
4

>  <r_i_docking_score>  (176) 
-2.9596

>  <r_i_glide_ligand_efficiency>  (176) 
-0.102055

>  <r_i_glide_ligand_efficiency_sa>  (176) 
-0.313546

>  <r_i_glide_ligand_efficiency_ln>  (176) 
-0.677673

>  <r_i_glide_gscore>  (176) 
-2.9596

>  <r_i_glide_lipo>  (176) 
-0.0205113

>  <r_i_glide_hbond>  (176) 
-0.193031

>  <r_i_glide_metal>  (176) 
-0

>  <r_i_glide_rewards>  (176) 
-0.637415

>  <r_i_glide_evdw>  (176) 
-20.9403

>  <r_i_glide_ecoul>  (176) 
-7.07749

>  <r_i_glide_erotb>  (176) 
0

>  <r_i_glide_esite>  (176) 
0

>  <r_i_glide_emodel>  (176) 
-33.8522

>  <r_i_glide_energy>  (176) 
-28.0178

>  <r_i_glide_einternal>  (176) 
1.362

>  <r_i_glide_intrahb_reward>  (176) 
-0

>  <i_i_glide_confnum>  (176) 
1

>  <i_i_glide_posenum>  (176) 
8

>  <r_i_glide_eff_state_penalty>  (176) 
0

>  <ligand_id>  (176) 
60

>  <original_smiles>  (176) 
CC1CC(O)C2(O)C3C(C)C(O)C4C(C)(COC5CCC46C1C1OC1C56)C(O)C32

>  <smiles>  (176) 
[H]OC1([H])C([H])(C([H])([H])[H])C2([H])C3([H])C([H])(O[H])C4(C([H])([H])[H])C([H])([H])OC5([H])C([H])([H])C([H])([H])C6(C5([H])C5([H])OC5([H])C6([H])C([H])(C([H])([H])[H])C([H])([H])C([H])(O[H])C32O[H])C14[H]

$$$$
61:0:0
     RDKit          3D

 92 97  0  0  1  0  0  0  0  0999 V2000
    0.3840   -8.3771    8.8678 C   0  0  0  0  0  0  0  0  0  0  0  0
    1.1662   -9.3718    8.0080 C   0  0  2  0  0  0  0  0  0  0  0  0
    2.4720   -9.7714    8.7045 C   0  0  0  0  0  0  0  0  0  0  0  0
    3.5506  -10.1875    7.7195 C   0  0  0  0  0  0  0  0  0  0  0  0
    3.8705   -9.1235    6.6524 C   0  0  2  0  0  0  0  0  0  0  0  0
    5.1131   -9.7230    5.9390 C   0  0  0  0  0  0  0  0  0  0  0  0
    4.2420   -7.7750    7.2971 C   0  0  0  0  0  0  0  0  0  0  0  0
    4.4889   -6.6518    6.2708 C   0  0  0  0  0  0  0  0  0  0  0  0
    3.3100   -6.3843    5.2826 C   0  0  1  0  0  0  0  0  0  0  0  0
    2.2282   -5.7300    6.2097 C   0  0  0  0  0  0  0  0  0  0  0  0
    3.6784   -5.4023    4.1107 C   0  0  0  0  0  0  0  0  0  0  0  0
    2.9409   -4.2801    3.9023 C   0  0  0  0  0  0  0  0  0  0  0  0
    2.8562   -3.5921    2.6459 C   0  0  0  0  0  0  0  0  0  0  0  0
    3.7207   -3.7894    1.6421 C   0  0  0  0  0  0  0  0  0  0  0  0
    3.5561   -3.0217    0.3174 C   0  0  1  0  0  0  0  0  0  0  0  0
    4.1887   -1.6240    0.3440 C   0  0  0  0  0  0  0  0  0  0  0  0
    3.8790   -0.8830   -0.9525 C   0  0  0  0  0  0  0  0  0  0  0  0
    4.3148   -1.6236   -2.2191 C   0  0  1  0  0  0  0  0  0  0  0  0
    5.7039   -1.6185   -2.2397 O   0  0  0  0  0  0  0  0  0  0  0  0
    3.8158   -3.0835   -2.3126 C   0  0  0  0  0  0  0  0  0  0  0  0
    2.3150   -3.0867   -2.6251 C   0  0  0  0  0  0  0  0  0  0  0  0
    4.5282   -3.7547   -3.5232 C   0  0  0  0  0  0  0  0  0  0  0  0
    4.0208   -3.8218   -0.9308 C   0  0  1  0  0  0  0  0  0  0  0  0
    5.4388   -4.3234   -0.6599 C   0  0  0  0  0  0  0  0  0  0  0  0
    5.4456   -5.3035    0.5187 C   0  0  0  0  0  0  0  0  0  0  0  0
    4.9244   -4.7247    1.8650 C   0  0  1  0  0  0  0  0  0  0  0  0
    6.0059   -3.7687    2.3866 C   0  0  0  0  0  0  0  0  0  0  0  0
    4.6633   -5.8699    2.9782 C   0  0  1  0  0  0  0  0  0  0  0  0
    6.0654   -6.3118    3.5093 C   0  0  0  0  0  0  0  0  0  0  0  0
    3.9883   -7.1283    2.3879 C   0  0  0  0  0  0  0  0  0  0  0  0
    3.6085   -8.1995    3.4370 C   0  0  0  0  0  0  0  0  0  0  0  0
    2.7307   -7.7255    4.6453 C   0  0  2  0  0  0  0  0  0  0  0  0
    1.3684   -7.4361    3.9382 C   0  0  0  0  0  0  0  0  0  0  0  0
    2.6149   -8.9205    5.7173 C   0  0  2  0  0  0  0  0  0  0  0  0
    1.2348   -8.9734    6.4965 C   0  0  1  0  0  0  0  0  0  0  0  0
    0.2500   -9.8895    5.7498 C   0  0  0  0  0  0  0  0  0  0  0  0
    0.9003   -7.4187    8.9317 H   0  0  0  0  0  0  0  0  0  0  0  0
    0.2588   -8.7614    9.8801 H   0  0  0  0  0  0  0  0  0  0  0  0
   -0.6144   -8.2087    8.4599 H   0  0  0  0  0  0  0  0  0  0  0  0
    0.5301  -10.2503    8.0713 H   0  0  0  0  0  0  0  0  0  0  0  0
    2.8236   -8.9710    9.3616 H   0  0  0  0  0  0  0  0  0  0  0  0
    2.2729  -10.6161    9.3528 H   0  0  0  0  0  0  0  0  0  0  0  0
    4.4376  -10.4778    8.2923 H   0  0  0  0  0  0  0  0  0  0  0  0
    3.2319  -11.0978    7.2152 H   0  0  0  0  0  0  0  0  0  0  0  0
    5.7015   -8.9917    5.4024 H   0  0  0  0  0  0  0  0  0  0  0  0
    4.8417  -10.5289    5.2520 H   0  0  0  0  0  0  0  0  0  0  0  0
    5.8169  -10.1473    6.6556 H   0  0  0  0  0  0  0  0  0  0  0  0
    3.4627   -7.4543    7.9831 H   0  0  0  0  0  0  0  0  0  0  0  0
    5.1274   -7.9094    7.9220 H   0  0  0  0  0  0  0  0  0  0  0  0
    4.7161   -5.7378    6.8173 H   0  0  0  0  0  0  0  0  0  0  0  0
    5.4128   -6.9025    5.7859 H   0  0  0  0  0  0  0  0  0  0  0  0
    1.9424   -6.3578    7.0442 H   0  0  0  0  0  0  0  0  0  0  0  0
    1.3013   -5.4763    5.7053 H   0  0  0  0  0  0  0  0  0  0  0  0
    2.6124   -4.8129    6.6588 H   0  0  0  0  0  0  0  0  0  0  0  0
    2.2152   -3.9350    4.6219 H   0  0  0  0  0  0  0  0  0  0  0  0
    2.0363   -2.9052    2.4839 H   0  0  0  0  0  0  0  0  0  0  0  0
    2.4754   -2.8711    0.2417 H   0  0  0  0  0  0  0  0  0  0  0  0
    3.8197   -1.0363    1.1895 H   0  0  0  0  0  0  0  0  0  0  0  0
    5.2716   -1.6474    0.4395 H   0  0  0  0  0  0  0  0  0  0  0  0
    2.8135   -0.6651   -0.9996 H   0  0  0  0  0  0  0  0  0  0  0  0
    4.3724    0.0917   -0.9313 H   0  0  0  0  0  0  0  0  0  0  0  0
    3.9565   -1.0745   -3.0959 H   0  0  0  0  0  0  0  0  0  0  0  0
    5.9688   -2.2230   -2.9093 H   0  0  0  0  0  0  0  0  0  0  0  0
    1.8925   -4.0965   -2.6916 H   0  0  0  0  0  0  0  0  0  0  0  0
    2.0654   -2.5718   -3.5605 H   0  0  0  0  0  0  0  0  0  0  0  0
    1.7874   -2.6161   -1.8129 H   0  0  0  0  0  0  0  0  0  0  0  0
    4.2848   -4.8128   -3.6261 H   0  0  0  0  0  0  0  0  0  0  0  0
    5.6154   -3.6866   -3.4963 H   0  0  0  0  0  0  0  0  0  0  0  0
    4.2052   -3.2810   -4.4498 H   0  0  0  0  0  0  0  0  0  0  0  0
    3.3802   -4.6949   -0.9437 H   0  0  0  0  0  0  0  0  0  0  0  0
    5.7723   -4.8825   -1.5329 H   0  0  0  0  0  0  0  0  0  0  0  0
    6.1598   -3.5244   -0.5209 H   0  0  0  0  0  0  0  0  0  0  0  0
    4.8493   -6.1458    0.1886 H   0  0  0  0  0  0  0  0  0  0  0  0
    6.4665   -5.6697    0.6338 H   0  0  0  0  0  0  0  0  0  0  0  0
    6.9790   -4.2618    2.4699 H   0  0  0  0  0  0  0  0  0  0  0  0
    5.7477   -3.3705    3.3683 H   0  0  0  0  0  0  0  0  0  0  0  0
    6.1932   -2.9280    1.7426 H   0  0  0  0  0  0  0  0  0  0  0  0
    6.8070   -6.3781    2.7158 H   0  0  0  0  0  0  0  0  0  0  0  0
    6.0937   -7.3105    3.9231 H   0  0  0  0  0  0  0  0  0  0  0  0
    6.4516   -5.6234    4.2613 H   0  0  0  0  0  0  0  0  0  0  0  0
    3.1125   -6.8284    1.8120 H   0  0  0  0  0  0  0  0  0  0  0  0
    4.6612   -7.6201    1.6842 H   0  0  0  0  0  0  0  0  0  0  0  0
    3.0909   -8.9977    2.9120 H   0  0  0  0  0  0  0  0  0  0  0  0
    4.5160   -8.6740    3.7605 H   0  0  0  0  0  0  0  0  0  0  0  0
    1.0413   -8.2822    3.3362 H   0  0  0  0  0  0  0  0  0  0  0  0
    1.4353   -6.5942    3.2543 H   0  0  0  0  0  0  0  0  0  0  0  0
    0.5413   -7.1904    4.5995 H   0  0  0  0  0  0  0  0  0  0  0  0
    2.5956   -9.8293    5.1205 H   0  0  0  0  0  0  0  0  0  0  0  0
    0.7741   -7.9966    6.4731 H   0  0  0  0  0  0  0  0  0  0  0  0
    0.5397  -10.9384    5.8162 H   0  0  0  0  0  0  0  0  0  0  0  0
    0.1292   -9.6671    4.6944 H   0  0  0  0  0  0  0  0  0  0  0  0
   -0.7259   -9.8024    6.2212 H   0  0  0  0  0  0  0  0  0  0  0  0
  1  2  1  0
  1 37  1  0
  1 38  1  0
  1 39  1  0
  2 35  1  0
  2  3  1  0
  2 40  1  6
  3  4  1  0
  3 41  1  0
  3 42  1  0
  4  5  1  0
  4 43  1  0
  4 44  1  0
  5 34  1  0
  5  6  1  6
  5  7  1  0
  6 45  1  0
  6 46  1  0
  6 47  1  0
  7  8  1  0
  7 48  1  0
  7 49  1  0
  8  9  1  0
  8 50  1  0
  8 51  1  0
  9 32  1  0
  9 10  1  1
  9 11  1  0
 10 52  1  0
 10 53  1  0
 10 54  1  0
 11 28  1  0
 11 12  2  0
 12 13  1  0
 12 55  1  0
 13 14  2  0
 13 56  1  0
 14 26  1  0
 14 15  1  0
 15 23  1  0
 15 16  1  0
 15 57  1  6
 16 17  1  0
 16 58  1  0
 16 59  1  0
 17 18  1  0
 17 60  1  0
 17 61  1  0
 18 19  1  0
 18 20  1  0
 18 62  1  6
 19 63  1  0
 20 21  1  0
 20 22  1  0
 20 23  1  0
 21 64  1  0
 21 65  1  0
 21 66  1  0
 22 67  1  0
 22 68  1  0
 22 69  1  0
 23 24  1  0
 23 70  1  6
 24 25  1  0
 24 71  1  0
 24 72  1  0
 25 26  1  0
 25 73  1  0
 25 74  1  0
 26 27  1  1
 26 28  1  0
 27 75  1  0
 27 76  1  0
 27 77  1  0
 28 29  1  1
 28 30  1  0
 29 78  1  0
 29 79  1  0
 29 80  1  0
 30 31  1  0
 30 81  1  0
 30 82  1  0
 31 32  1  0
 31 83  1  0
 31 84  1  0
 32 33  1  6
 32 34  1  0
 33 85  1  0
 33 86  1  0
 33 87  1  0
 34 35  1  0
 34 88  1  6
 35 36  1  0
 35 89  1  1
 36 90  1  0
 36 91  1  0
 36 92  1  0
M  END
>  <i_m_ct_stereo_status>  (177) 
1

>  <s_m_source_file>  (177) 
/var/tmp/pbs.5076255.sched01/tmppxy1xzy0/80exjuxwr6.sdf

>  <i_m_source_file_index>  (177) 
7

>  <i_lp_mmshare_version>  (177) 
48012

>  <i_f3d_flags>  (177) 
0

>  <s_epik_input>  (177) 
W0NIMl0xW0NIMl1bQ0BASF0oW0NIM10pW0NASF0oW0NIM10pW0NASF0oW0NAXTEyW0NIM10pW0NAQF0zKFtDSDNdKVtDQEBdKFtDSDNdKShbQ0gyXVtDSDJdMilDPTRbQ0BAXShbQ0gzXSkoW0NIMl1bQ0gyXTMpW0NAXTUoW0NIM10pQyg9W0NIXVtDSF00KVtDQEBIXTZbQ0BIXShbQ0gyXVtDSDJdNSlDKFtDSDNdKShbQ0gzXSlbQ0BIXShbT0hdKVtDSDJdW0NIMl02

>  <s_epik_cmdline>  (177) 
J2VwaWtfcHl0aG9uJywgJy1waHQnLCAnMi4wJywgJy1waCcsICc3LjAnLCAnLXRuJywgJzgnLCAnLW1hJywgJzIwMCcsICctaW1hZScsICc8aW5maWxlLm1hZT4nLCAnLW9tYWUnLCAnPG91dGZpbGUubWFlPic=

>  <r_lp_tautomer_probability>  (177) 
1

>  <r_epik_Ionization_Penalty>  (177) 
1.46627e-06

>  <r_epik_Ionization_Penalty_Charging>  (177) 
0

>  <r_epik_Ionization_Penalty_Neutral>  (177) 
1.46627e-06

>  <r_epik_State_Penalty>  (177) 
-0

>  <r_epik_Charging_Adjusted_Penalty>  (177) 
0

>  <i_epik_Tot_Q>  (177) 
0

>  <i_epik_Tot_abs_Q>  (177) 
0

>  <s_lp_Force_Field>  (177) 
OPLS3e

>  <r_lp_Energy>  (177) 
131.136

>  <b_lp_Chiralities_Consistent>  (177) 
1

>  <s_lp_Variant>  (177) 
61:0-1

>  <s_i_glide_gridfile>  (177) 
pfpi4k_grid

>  <i_i_glide_lignum>  (177) 
7

>  <i_i_glide_rotatable_bonds>  (177) 
1

>  <r_i_docking_score>  (177) 
-1.48525

>  <r_i_glide_ligand_efficiency>  (177) 
-0.041257

>  <r_i_glide_ligand_efficiency_sa>  (177) 
-0.136227

>  <r_i_glide_ligand_efficiency_ln>  (177) 
-0.324041

>  <r_i_glide_gscore>  (177) 
-1.48525

>  <r_i_glide_lipo>  (177) 
-0.345273

>  <r_i_glide_hbond>  (177) 
-0.020673

>  <r_i_glide_metal>  (177) 
-0

>  <r_i_glide_rewards>  (177) 
-0.0489645

>  <r_i_glide_evdw>  (177) 
-14.4061

>  <r_i_glide_ecoul>  (177) 
-2.33357

>  <r_i_glide_erotb>  (177) 
0

>  <r_i_glide_esite>  (177) 
0

>  <r_i_glide_emodel>  (177) 
-15.7883

>  <r_i_glide_energy>  (177) 
-16.7397

>  <r_i_glide_einternal>  (177) 
0.668741

>  <r_i_glide_intrahb_reward>  (177) 
-0

>  <i_i_glide_confnum>  (177) 
2

>  <i_i_glide_posenum>  (177) 
12

>  <r_i_glide_eff_state_penalty>  (177) 
0

>  <ligand_id>  (177) 
61

>  <original_smiles>  (177) 
CC1CCC2(C)CCC3(C)C4=CC=C5C6CCC(O)C(C)(C)C6CCC5(C)C4(C)CCC3(C)C2C1C

>  <smiles>  (177) 
[H]OC1([H])C([H])([H])C([H])([H])C2([H])C3=C([H])C([H])=C4C(C([H])([H])[H])(C([H])([H])C([H])([H])C5(C([H])([H])[H])C6([H])C([H])(C([H])([H])[H])C([H])(C([H])([H])[H])C([H])([H])C([H])([H])C6(C([H])([H])[H])C([H])([H])C([H])([H])C45C([H])([H])[H])C3(C([H])([H])[H])C([H])([H])C([H])([H])C2([H])C1(C([H])([H])[H])C([H])([H])[H]

$$$$
61:0:1
     RDKit          3D

 92 97  0  0  1  0  0  0  0  0999 V2000
    0.3883   -8.3768    8.8709 C   0  0  0  0  0  0  0  0  0  0  0  0
    1.1762   -9.3719    8.0113 C   0  0  2  0  0  0  0  0  0  0  0  0
    2.4802   -9.7672    8.7090 C   0  0  0  0  0  0  0  0  0  0  0  0
    3.5547  -10.1849    7.7248 C   0  0  0  0  0  0  0  0  0  0  0  0
    3.8717   -9.1276    6.6509 C   0  0  2  0  0  0  0  0  0  0  0  0
    5.1123   -9.7298    5.9343 C   0  0  0  0  0  0  0  0  0  0  0  0
    4.2507   -7.7762    7.2960 C   0  0  0  0  0  0  0  0  0  0  0  0
    4.4931   -6.6529    6.2675 C   0  0  0  0  0  0  0  0  0  0  0  0
    3.3046   -6.3866    5.2851 C   0  0  1  0  0  0  0  0  0  0  0  0
    2.2317   -5.7352    6.2167 C   0  0  0  0  0  0  0  0  0  0  0  0
    3.6804   -5.4089    4.1096 C   0  0  0  0  0  0  0  0  0  0  0  0
    2.9313   -4.2797    3.9166 C   0  0  0  0  0  0  0  0  0  0  0  0
    2.8414   -3.5944    2.6491 C   0  0  0  0  0  0  0  0  0  0  0  0
    3.7098   -3.8026    1.6557 C   0  0  0  0  0  0  0  0  0  0  0  0
    3.5413   -3.0283    0.3219 C   0  0  1  0  0  0  0  0  0  0  0  0
    4.1869   -1.6360    0.3585 C   0  0  0  0  0  0  0  0  0  0  0  0
    3.8277   -0.9198   -0.9327 C   0  0  0  0  0  0  0  0  0  0  0  0
    4.2653   -1.6491   -2.1917 C   0  0  1  0  0  0  0  0  0  0  0  0
    5.6546   -1.5384   -2.1612 O   0  0  0  0  0  0  0  0  0  0  0  0
    3.8004   -3.0990   -2.3108 C   0  0  0  0  0  0  0  0  0  0  0  0
    2.2967   -3.1113   -2.6193 C   0  0  0  0  0  0  0  0  0  0  0  0
    4.5278   -3.7560   -3.5213 C   0  0  0  0  0  0  0  0  0  0  0  0
    4.0050   -3.8326   -0.9259 C   0  0  1  0  0  0  0  0  0  0  0  0
    5.4193   -4.3254   -0.6646 C   0  0  0  0  0  0  0  0  0  0  0  0
    5.4320   -5.3045    0.5132 C   0  0  0  0  0  0  0  0  0  0  0  0
    4.9076   -4.7266    1.8610 C   0  0  1  0  0  0  0  0  0  0  0  0
    5.9905   -3.7755    2.3695 C   0  0  0  0  0  0  0  0  0  0  0  0
    4.6518   -5.8750    2.9832 C   0  0  1  0  0  0  0  0  0  0  0  0
    6.0597   -6.3156    3.5054 C   0  0  0  0  0  0  0  0  0  0  0  0
    3.9793   -7.1330    2.3860 C   0  0  0  0  0  0  0  0  0  0  0  0
    3.6039   -8.2027    3.4387 C   0  0  0  0  0  0  0  0  0  0  0  0
    2.7300   -7.7293    4.6475 C   0  0  2  0  0  0  0  0  0  0  0  0
    1.3638   -7.4398    3.9445 C   0  0  0  0  0  0  0  0  0  0  0  0
    2.6167   -8.9228    5.7186 C   0  0  2  0  0  0  0  0  0  0  0  0
    1.2389   -8.9733    6.5014 C   0  0  1  0  0  0  0  0  0  0  0  0
    0.2486   -9.8878    5.7603 C   0  0  0  0  0  0  0  0  0  0  0  0
    0.9069   -7.4201    8.9350 H   0  0  0  0  0  0  0  0  0  0  0  0
    0.2636   -8.7654    9.8834 H   0  0  0  0  0  0  0  0  0  0  0  0
   -0.6066   -8.2095    8.4619 H   0  0  0  0  0  0  0  0  0  0  0  0
    0.5448  -10.2549    8.0781 H   0  0  0  0  0  0  0  0  0  0  0  0
    2.8258   -8.9705    9.3617 H   0  0  0  0  0  0  0  0  0  0  0  0
    2.2814  -10.6175    9.3629 H   0  0  0  0  0  0  0  0  0  0  0  0
    4.4411  -10.4756    8.2900 H   0  0  0  0  0  0  0  0  0  0  0  0
    3.2316  -11.0939    7.2195 H   0  0  0  0  0  0  0  0  0  0  0  0
    5.7042   -8.9970    5.3944 H   0  0  0  0  0  0  0  0  0  0  0  0
    4.8394  -10.5325    5.2509 H   0  0  0  0  0  0  0  0  0  0  0  0
    5.8209  -10.1535    6.6499 H   0  0  0  0  0  0  0  0  0  0  0  0
    3.4711   -7.4573    7.9854 H   0  0  0  0  0  0  0  0  0  0  0  0
    5.1374   -7.9127    7.9166 H   0  0  0  0  0  0  0  0  0  0  0  0
    4.7188   -5.7386    6.8176 H   0  0  0  0  0  0  0  0  0  0  0  0
    5.4156   -6.9054    5.7794 H   0  0  0  0  0  0  0  0  0  0  0  0
    1.9456   -6.3612    7.0497 H   0  0  0  0  0  0  0  0  0  0  0  0
    1.3012   -5.4813    5.7134 H   0  0  0  0  0  0  0  0  0  0  0  0
    2.6145   -4.8167    6.6625 H   0  0  0  0  0  0  0  0  0  0  0  0
    2.2142   -3.9367    4.6301 H   0  0  0  0  0  0  0  0  0  0  0  0
    2.0268   -2.9013    2.4958 H   0  0  0  0  0  0  0  0  0  0  0  0
    2.4653   -2.8678    0.2526 H   0  0  0  0  0  0  0  0  0  0  0  0
    3.8182   -1.0431    1.1997 H   0  0  0  0  0  0  0  0  0  0  0  0
    5.2742   -1.6548    0.4516 H   0  0  0  0  0  0  0  0  0  0  0  0
    2.7552   -0.7740   -0.9735 H   0  0  0  0  0  0  0  0  0  0  0  0
    4.2732    0.0756   -0.9167 H   0  0  0  0  0  0  0  0  0  0  0  0
    3.9176   -1.0888   -3.0625 H   0  0  0  0  0  0  0  0  0  0  0  0
    5.8349   -0.7289   -2.5749 H   0  0  0  0  0  0  0  0  0  0  0  0
    1.9013   -4.1210   -2.7124 H   0  0  0  0  0  0  0  0  0  0  0  0
    2.0550   -2.5868   -3.5497 H   0  0  0  0  0  0  0  0  0  0  0  0
    1.7509   -2.6602   -1.7991 H   0  0  0  0  0  0  0  0  0  0  0  0
    4.3094   -4.8122   -3.6308 H   0  0  0  0  0  0  0  0  0  0  0  0
    5.6139   -3.6128   -3.4984 H   0  0  0  0  0  0  0  0  0  0  0  0
    4.2077   -3.2635   -4.4390 H   0  0  0  0  0  0  0  0  0  0  0  0
    3.3606   -4.7000   -0.9376 H   0  0  0  0  0  0  0  0  0  0  0  0
    5.7160   -4.8860   -1.5330 H   0  0  0  0  0  0  0  0  0  0  0  0
    6.1472   -3.5240   -0.5315 H   0  0  0  0  0  0  0  0  0  0  0  0
    4.8339   -6.1491    0.1865 H   0  0  0  0  0  0  0  0  0  0  0  0
    6.4498   -5.6673    0.6298 H   0  0  0  0  0  0  0  0  0  0  0  0
    6.9577   -4.2568    2.3979 H   0  0  0  0  0  0  0  0  0  0  0  0
    5.7487   -3.3911    3.3602 H   0  0  0  0  0  0  0  0  0  0  0  0
    6.1682   -2.9233    1.7319 H   0  0  0  0  0  0  0  0  0  0  0  0
    6.7984   -6.3838    2.7096 H   0  0  0  0  0  0  0  0  0  0  0  0
    6.0899   -7.3134    3.9177 H   0  0  0  0  0  0  0  0  0  0  0  0
    6.4499   -5.6245    4.2544 H   0  0  0  0  0  0  0  0  0  0  0  0
    3.1039   -6.8310    1.8131 H   0  0  0  0  0  0  0  0  0  0  0  0
    4.6537   -7.6218    1.6845 H   0  0  0  0  0  0  0  0  0  0  0  0
    3.0829   -9.0014    2.9122 H   0  0  0  0  0  0  0  0  0  0  0  0
    4.5116   -8.6797    3.7586 H   0  0  0  0  0  0  0  0  0  0  0  0
    1.0388   -8.2850    3.3426 H   0  0  0  0  0  0  0  0  0  0  0  0
    1.4314   -6.5971    3.2596 H   0  0  0  0  0  0  0  0  0  0  0  0
    0.5403   -7.1941    4.6070 H   0  0  0  0  0  0  0  0  0  0  0  0
    2.5964   -9.8328    5.1226 H   0  0  0  0  0  0  0  0  0  0  0  0
    0.7786   -7.9929    6.4788 H   0  0  0  0  0  0  0  0  0  0  0  0
    0.5451  -10.9390    5.8247 H   0  0  0  0  0  0  0  0  0  0  0  0
    0.1262   -9.6637    4.7034 H   0  0  0  0  0  0  0  0  0  0  0  0
   -0.7293   -9.8158    6.2317 H   0  0  0  0  0  0  0  0  0  0  0  0
  1  2  1  0
  1 37  1  0
  1 38  1  0
  1 39  1  0
  2 35  1  0
  2  3  1  0
  2 40  1  6
  3  4  1  0
  3 41  1  0
  3 42  1  0
  4  5  1  0
  4 43  1  0
  4 44  1  0
  5 34  1  0
  5  6  1  6
  5  7  1  0
  6 45  1  0
  6 46  1  0
  6 47  1  0
  7  8  1  0
  7 48  1  0
  7 49  1  0
  8  9  1  0
  8 50  1  0
  8 51  1  0
  9 32  1  0
  9 10  1  1
  9 11  1  0
 10 52  1  0
 10 53  1  0
 10 54  1  0
 11 28  1  0
 11 12  2  0
 12 13  1  0
 12 55  1  0
 13 14  2  0
 13 56  1  0
 14 26  1  0
 14 15  1  0
 15 23  1  0
 15 16  1  0
 15 57  1  6
 16 17  1  0
 16 58  1  0
 16 59  1  0
 17 18  1  0
 17 60  1  0
 17 61  1  0
 18 19  1  0
 18 20  1  0
 18 62  1  6
 19 63  1  0
 20 21  1  0
 20 22  1  0
 20 23  1  0
 21 64  1  0
 21 65  1  0
 21 66  1  0
 22 67  1  0
 22 68  1  0
 22 69  1  0
 23 24  1  0
 23 70  1  6
 24 25  1  0
 24 71  1  0
 24 72  1  0
 25 26  1  0
 25 73  1  0
 25 74  1  0
 26 27  1  1
 26 28  1  0
 27 75  1  0
 27 76  1  0
 27 77  1  0
 28 29  1  1
 28 30  1  0
 29 78  1  0
 29 79  1  0
 29 80  1  0
 30 31  1  0
 30 81  1  0
 30 82  1  0
 31 32  1  0
 31 83  1  0
 31 84  1  0
 32 33  1  6
 32 34  1  0
 33 85  1  0
 33 86  1  0
 33 87  1  0
 34 35  1  0
 34 88  1  6
 35 36  1  0
 35 89  1  1
 36 90  1  0
 36 91  1  0
 36 92  1  0
M  END
>  <i_m_ct_stereo_status>  (178) 
1

>  <s_m_source_file>  (178) 
/var/tmp/pbs.5076255.sched01/tmppxy1xzy0/80exjuxwr6.sdf

>  <i_m_source_file_index>  (178) 
7

>  <i_lp_mmshare_version>  (178) 
48012

>  <i_f3d_flags>  (178) 
0

>  <s_epik_input>  (178) 
W0NIMl0xW0NIMl1bQ0BASF0oW0NIM10pW0NASF0oW0NIM10pW0NASF0oW0NAXTEyW0NIM10pW0NAQF0zKFtDSDNdKVtDQEBdKFtDSDNdKShbQ0gyXVtDSDJdMilDPTRbQ0BAXShbQ0gzXSkoW0NIMl1bQ0gyXTMpW0NAXTUoW0NIM10pQyg9W0NIXVtDSF00KVtDQEBIXTZbQ0BIXShbQ0gyXVtDSDJdNSlDKFtDSDNdKShbQ0gzXSlbQ0BIXShbT0hdKVtDSDJdW0NIMl02

>  <s_epik_cmdline>  (178) 
J2VwaWtfcHl0aG9uJywgJy1waHQnLCAnMi4wJywgJy1waCcsICc3LjAnLCAnLXRuJywgJzgnLCAnLW1hJywgJzIwMCcsICctaW1hZScsICc8aW5maWxlLm1hZT4nLCAnLW9tYWUnLCAnPG91dGZpbGUubWFlPic=

>  <r_lp_tautomer_probability>  (178) 
1

>  <r_epik_Ionization_Penalty>  (178) 
1.46627e-06

>  <r_epik_Ionization_Penalty_Charging>  (178) 
0

>  <r_epik_Ionization_Penalty_Neutral>  (178) 
1.46627e-06

>  <r_epik_State_Penalty>  (178) 
-0

>  <r_epik_Charging_Adjusted_Penalty>  (178) 
0

>  <i_epik_Tot_Q>  (178) 
0

>  <i_epik_Tot_abs_Q>  (178) 
0

>  <s_lp_Force_Field>  (178) 
OPLS3e

>  <r_lp_Energy>  (178) 
131.136

>  <b_lp_Chiralities_Consistent>  (178) 
1

>  <s_lp_Variant>  (178) 
61:0-1

>  <s_i_glide_gridfile>  (178) 
pfpi4k_grid

>  <i_i_glide_lignum>  (178) 
7

>  <i_i_glide_rotatable_bonds>  (178) 
1

>  <r_i_docking_score>  (178) 
-1.44983

>  <r_i_glide_ligand_efficiency>  (178) 
-0.040273

>  <r_i_glide_ligand_efficiency_sa>  (178) 
-0.132978

>  <r_i_glide_ligand_efficiency_ln>  (178) 
-0.316313

>  <r_i_glide_gscore>  (178) 
-1.44983

>  <r_i_glide_lipo>  (178) 
-0.361653

>  <r_i_glide_hbond>  (178) 
-0.021059

>  <r_i_glide_metal>  (178) 
-0

>  <r_i_glide_rewards>  (178) 
-0.0489645

>  <r_i_glide_evdw>  (178) 
-16.0331

>  <r_i_glide_ecoul>  (178) 
-1.4433

>  <r_i_glide_erotb>  (178) 
0

>  <r_i_glide_esite>  (178) 
0

>  <r_i_glide_emodel>  (178) 
-16.4112

>  <r_i_glide_energy>  (178) 
-17.4764

>  <r_i_glide_einternal>  (178) 
0.526608

>  <r_i_glide_intrahb_reward>  (178) 
-0

>  <i_i_glide_confnum>  (178) 
2

>  <i_i_glide_posenum>  (178) 
17

>  <r_i_glide_eff_state_penalty>  (178) 
0

>  <ligand_id>  (178) 
61

>  <original_smiles>  (178) 
CC1CCC2(C)CCC3(C)C4=CC=C5C6CCC(O)C(C)(C)C6CCC5(C)C4(C)CCC3(C)C2C1C

>  <smiles>  (178) 
[H]OC1([H])C([H])([H])C([H])([H])C2([H])C3=C([H])C([H])=C4C(C([H])([H])[H])(C([H])([H])C([H])([H])C5(C([H])([H])[H])C6([H])C([H])(C([H])([H])[H])C([H])(C([H])([H])[H])C([H])([H])C([H])([H])C6(C([H])([H])[H])C([H])([H])C([H])([H])C45C([H])([H])[H])C3(C([H])([H])[H])C([H])([H])C([H])([H])C2([H])C1(C([H])([H])[H])C([H])([H])[H]

$$$$
62:0:0
     RDKit          3D

 64 67  0  0  1  0  0  0  0  0999 V2000
   -2.7316    3.0340    2.8907 C   0  0  0  0  0  0  0  0  0  0  0  0
   -1.6877    2.1419    3.5680 C   0  0  0  0  0  0  0  0  0  0  0  0
   -0.5916    1.6781    2.5991 C   0  0  0  0  0  0  0  0  0  0  0  0
    0.5499    0.9513    3.3115 C   0  0  0  0  0  0  0  0  0  0  0  0
    1.6506    0.4597    2.3540 C   0  0  0  0  0  0  0  0  0  0  0  0
    2.9369    0.0410    3.0914 C   0  0  0  0  0  0  0  0  0  0  0  0
    2.7533   -1.1480    4.0596 C   0  0  0  0  0  0  0  0  0  0  0  0
    2.7122   -2.5145    3.3770 C   0  0  0  0  0  0  0  0  0  0  0  0
    3.1794   -2.6995    2.2514 O   0  0  0  0  0  0  0  0  0  0  0  0
    2.1654   -3.4551    4.1831 O   0  0  0  0  0  0  0  0  0  0  0  0
    2.2298   -4.7643    3.6837 C   0  0  2  0  0  0  0  0  0  0  0  0
    1.5867   -4.9185    2.4734 O   0  0  0  0  0  0  0  0  0  0  0  0
    1.2897   -6.2859    2.2498 C   0  0  2  0  0  0  0  0  0  0  0  0
    2.4138   -6.7105    1.2736 C   0  0  0  0  0  0  0  0  0  0  0  0
   -0.0057   -6.4370    1.6723 O   0  0  0  0  0  0  0  0  0  0  0  0
   -0.3261   -7.9134    1.7011 O   0  0  0  0  0  0  0  0  0  0  0  0
   -0.5784   -8.2804    3.0549 C   0  0  1  0  0  0  0  0  0  0  0  0
   -2.0793   -8.4007    3.3039 C   0  0  0  0  0  0  0  0  0  0  0  0
    0.1475   -9.5951    3.3425 C   0  0  0  0  0  0  0  0  0  0  0  0
    1.6572   -9.4127    3.1966 C   0  0  0  0  0  0  0  0  0  0  0  0
    2.1764   -8.1643    3.9407 C   0  0  2  0  0  0  0  0  0  0  0  0
    2.4466   -8.3803    5.4517 C   0  0  1  0  0  0  0  0  0  0  0  0
    3.3841   -9.5649    5.7535 C   0  0  0  0  0  0  0  0  0  0  0  0
    3.0587   -7.0974    6.0439 C   0  0  0  0  0  0  0  0  0  0  0  0
    2.0860   -5.9235    5.9616 C   0  0  0  0  0  0  0  0  0  0  0  0
    1.4609   -5.7223    4.5713 C   0  0  2  0  0  0  0  0  0  0  0  0
    1.2375   -6.9408    3.6694 C   0  0  1  0  0  0  0  0  0  0  0  0
   -0.1027   -7.3074    3.9660 O   0  0  0  0  0  0  0  0  0  0  0  0
   -3.5014    3.3370    3.5994 H   0  0  0  0  0  0  0  0  0  0  0  0
   -3.2250    2.5194    2.0678 H   0  0  0  0  0  0  0  0  0  0  0  0
   -2.2675    3.9323    2.4837 H   0  0  0  0  0  0  0  0  0  0  0  0
   -1.2395    2.6937    4.3945 H   0  0  0  0  0  0  0  0  0  0  0  0
   -2.1771    1.2730    4.0090 H   0  0  0  0  0  0  0  0  0  0  0  0
   -1.0184    1.0404    1.8265 H   0  0  0  0  0  0  0  0  0  0  0  0
   -0.1734    2.5419    2.0822 H   0  0  0  0  0  0  0  0  0  0  0  0
    0.9884    1.6237    4.0506 H   0  0  0  0  0  0  0  0  0  0  0  0
    0.1349    0.1101    3.8650 H   0  0  0  0  0  0  0  0  0  0  0  0
    1.2726   -0.3583    1.7379 H   0  0  0  0  0  0  0  0  0  0  0  0
    1.9075    1.2571    1.6546 H   0  0  0  0  0  0  0  0  0  0  0  0
    3.7160   -0.1709    2.3572 H   0  0  0  0  0  0  0  0  0  0  0  0
    3.3230    0.8951    3.6461 H   0  0  0  0  0  0  0  0  0  0  0  0
    3.5839   -1.1707    4.7647 H   0  0  0  0  0  0  0  0  0  0  0  0
    1.8535   -1.0215    4.6600 H   0  0  0  0  0  0  0  0  0  0  0  0
    3.2701   -5.0643    3.5655 H   0  0  0  0  0  0  0  0  0  0  0  0
    2.4114   -6.0716    0.3935 H   0  0  0  0  0  0  0  0  0  0  0  0
    2.3266   -7.7256    0.9113 H   0  0  0  0  0  0  0  0  0  0  0  0
    3.4016   -6.5969    1.7216 H   0  0  0  0  0  0  0  0  0  0  0  0
   -2.5938   -7.4533    3.1420 H   0  0  0  0  0  0  0  0  0  0  0  0
   -2.2441   -8.6827    4.3420 H   0  0  0  0  0  0  0  0  0  0  0  0
   -2.5483   -9.1567    2.6720 H   0  0  0  0  0  0  0  0  0  0  0  0
   -0.0940   -9.9294    4.3529 H   0  0  0  0  0  0  0  0  0  0  0  0
   -0.2029  -10.3683    2.6564 H   0  0  0  0  0  0  0  0  0  0  0  0
    2.1572  -10.3176    3.5141 H   0  0  0  0  0  0  0  0  0  0  0  0
    1.8809   -9.3498    2.1363 H   0  0  0  0  0  0  0  0  0  0  0  0
    3.1565   -7.9434    3.5258 H   0  0  0  0  0  0  0  0  0  0  0  0
    1.5005   -8.5802    5.9509 H   0  0  0  0  0  0  0  0  0  0  0  0
    4.3143   -9.5064    5.1881 H   0  0  0  0  0  0  0  0  0  0  0  0
    2.9125  -10.5213    5.5402 H   0  0  0  0  0  0  0  0  0  0  0  0
    3.6447   -9.5910    6.8108 H   0  0  0  0  0  0  0  0  0  0  0  0
    3.3395   -7.2615    7.0897 H   0  0  0  0  0  0  0  0  0  0  0  0
    3.9706   -6.8329    5.5115 H   0  0  0  0  0  0  0  0  0  0  0  0
    1.2758   -6.1629    6.6446 H   0  0  0  0  0  0  0  0  0  0  0  0
    2.5368   -5.0015    6.3517 H   0  0  0  0  0  0  0  0  0  0  0  0
    0.4978   -5.2320    4.7258 H   0  0  0  0  0  0  0  0  0  0  0  0
  1  2  1  0
  1 29  1  0
  1 30  1  0
  1 31  1  0
  2  3  1  0
  2 32  1  0
  2 33  1  0
  3  4  1  0
  3 34  1  0
  3 35  1  0
  4  5  1  0
  4 36  1  0
  4 37  1  0
  5  6  1  0
  5 38  1  0
  5 39  1  0
  6  7  1  0
  6 40  1  0
  6 41  1  0
  7  8  1  0
  7 42  1  0
  7 43  1  0
  8  9  2  0
  8 10  1  0
 10 11  1  0
 11 26  1  0
 11 12  1  0
 11 44  1  6
 12 13  1  0
 13 27  1  0
 13 14  1  6
 13 15  1  0
 14 45  1  0
 14 46  1  0
 14 47  1  0
 15 16  1  0
 16 17  1  0
 17 28  1  0
 17 18  1  6
 17 19  1  0
 18 48  1  0
 18 49  1  0
 18 50  1  0
 19 20  1  0
 19 51  1  0
 19 52  1  0
 20 21  1  0
 20 53  1  0
 20 54  1  0
 21 27  1  0
 21 22  1  0
 21 55  1  6
 22 23  1  0
 22 24  1  0
 22 56  1  1
 23 57  1  0
 23 58  1  0
 23 59  1  0
 24 25  1  0
 24 60  1  0
 24 61  1  0
 25 26  1  0
 25 62  1  0
 25 63  1  0
 26 27  1  0
 26 64  1  1
 27 28  1  1
M  END
>  <i_m_ct_stereo_status>  (179) 
1

>  <s_m_source_file>  (179) 
/var/tmp/pbs.5076255.sched01/tmppxy1xzy0/80exjuxwr6.sdf

>  <i_m_source_file_index>  (179) 
8

>  <i_lp_mmshare_version>  (179) 
48012

>  <i_f3d_flags>  (179) 
0

>  <s_epik_input>  (179) 
W0NIM11bQ0gyXVtDSDJdW0NIMl1bQ0gyXVtDSDJdW0NIMl1DKD1PKU9bQ0BIXShPW0NAXTEoW0NAQF0yMzQpW0NIM10pW0NAQEhdM1tDSDJdW0NIMl1bQ0BIXShbQ0gzXSlbQ0BIXTJbQ0gyXVtDSDJdW0NAQF0oTzQpKE9PMSlbQ0gzXQ==

>  <s_epik_cmdline>  (179) 
J2VwaWtfcHl0aG9uJywgJy1waHQnLCAnMi4wJywgJy1waCcsICc3LjAnLCAnLXRuJywgJzgnLCAnLW1hJywgJzIwMCcsICctaW1hZScsICc8aW5maWxlLm1hZT4nLCAnLW9tYWUnLCAnPG91dGZpbGUubWFlPic=

>  <r_lp_tautomer_probability>  (179) 
1

>  <r_epik_Ionization_Penalty>  (179) 
1.71026e-15

>  <r_epik_Ionization_Penalty_Charging>  (179) 
0

>  <r_epik_Ionization_Penalty_Neutral>  (179) 
1.71026e-15

>  <r_epik_State_Penalty>  (179) 
-0

>  <r_epik_Charging_Adjusted_Penalty>  (179) 
0

>  <i_epik_Tot_Q>  (179) 
0

>  <i_epik_Tot_abs_Q>  (179) 
0

>  <s_epik_Chemistry_Notes>  (179) 
This compound has an ester and may undergo hydrolysis at high or low pH. This compound contains an acetal/aminal-like group ( X-CH(R)-Y where X, Y are N, S, or O) that may be acid/base labile, releasing an aldehyde.

>  <s_lp_Force_Field>  (179) 
OPLS3e

>  <r_lp_Energy>  (179) 
34.1872

>  <b_lp_Chiralities_Consistent>  (179) 
1

>  <s_lp_Variant>  (179) 
62:0-1

>  <s_i_glide_gridfile>  (179) 
pfpi4k_grid

>  <i_i_glide_lignum>  (179) 
8

>  <i_i_glide_rotatable_bonds>  (179) 
8

>  <r_i_docking_score>  (179) 
-1.56897

>  <r_i_glide_ligand_efficiency>  (179) 
-0.0560347

>  <r_i_glide_ligand_efficiency_sa>  (179) 
-0.170154

>  <r_i_glide_ligand_efficiency_ln>  (179) 
-0.362165

>  <r_i_glide_gscore>  (179) 
-1.56897

>  <r_i_glide_lipo>  (179) 
0

>  <r_i_glide_hbond>  (179) 
-0.304305

>  <r_i_glide_metal>  (179) 
-0

>  <r_i_glide_rewards>  (179) 
-0.705876

>  <r_i_glide_evdw>  (179) 
-23.5278

>  <r_i_glide_ecoul>  (179) 
-1.04339

>  <r_i_glide_erotb>  (179) 
0.871098

>  <r_i_glide_esite>  (179) 
-0.0969904

>  <r_i_glide_emodel>  (179) 
-25.9288

>  <r_i_glide_energy>  (179) 
-24.5712

>  <r_i_glide_einternal>  (179) 
2.38694

>  <r_i_glide_intrahb_reward>  (179) 
-0

>  <i_i_glide_confnum>  (179) 
3

>  <i_i_glide_posenum>  (179) 
36

>  <r_i_glide_eff_state_penalty>  (179) 
0

>  <ligand_id>  (179) 
62

>  <original_smiles>  (179) 
CCCCCCCC(=O)OC1OC2(C)OOC3(C)CCC4C(C)CCC1C42O3

>  <smiles>  (179) 
[H]C([H])([H])C([H])([H])C([H])([H])C([H])([H])C([H])([H])C([H])([H])C([H])([H])C(=O)OC1([H])OC2(C([H])([H])[H])OOC3(C([H])([H])[H])OC24C1([H])C([H])([H])C([H])([H])C([H])(C([H])([H])[H])C4([H])C([H])([H])C3([H])[H]

$$$$
62:0:1
     RDKit          3D

 64 67  0  0  1  0  0  0  0  0999 V2000
   -1.4144    1.1976    3.8472 C   0  0  0  0  0  0  0  0  0  0  0  0
   -0.6525    2.1054    2.8710 C   0  0  0  0  0  0  0  0  0  0  0  0
    0.5557    1.4372    2.1966 C   0  0  0  0  0  0  0  0  0  0  0  0
    1.6349    1.0115    3.1976 C   0  0  0  0  0  0  0  0  0  0  0  0
    2.8401    0.3262    2.5462 C   0  0  0  0  0  0  0  0  0  0  0  0
    3.8426   -0.2042    3.5898 C   0  0  0  0  0  0  0  0  0  0  0  0
    3.3195   -1.3869    4.4413 C   0  0  0  0  0  0  0  0  0  0  0  0
    3.2464   -2.7173    3.6885 C   0  0  0  0  0  0  0  0  0  0  0  0
    3.8890   -2.9275    2.6622 O   0  0  0  0  0  0  0  0  0  0  0  0
    2.4478   -3.6040    4.3318 O   0  0  0  0  0  0  0  0  0  0  0  0
    2.4444   -4.8866    3.7729 C   0  0  2  0  0  0  0  0  0  0  0  0
    1.9639   -4.9220    2.4769 O   0  0  0  0  0  0  0  0  0  0  0  0
    1.5630   -6.2465    2.1548 C   0  0  2  0  0  0  0  0  0  0  0  0
    2.7636   -6.7615    1.3166 C   0  0  0  0  0  0  0  0  0  0  0  0
    0.3428   -6.2607    1.4174 O   0  0  0  0  0  0  0  0  0  0  0  0
   -0.1118   -7.6881    1.3267 O   0  0  0  0  0  0  0  0  0  0  0  0
   -0.5760   -8.0774    2.6188 C   0  0  1  0  0  0  0  0  0  0  0  0
   -2.1046   -8.0625    2.6660 C   0  0  0  0  0  0  0  0  0  0  0  0
   -0.0284   -9.4728    2.9365 C   0  0  0  0  0  0  0  0  0  0  0  0
    1.4982   -9.4377    3.0000 C   0  0  0  0  0  0  0  0  0  0  0  0
    2.0255   -8.2727    3.8626 C   0  0  2  0  0  0  0  0  0  0  0  0
    2.0671   -8.5666    5.3851 C   0  0  1  0  0  0  0  0  0  0  0  0
    2.8362   -9.8497    5.7554 C   0  0  0  0  0  0  0  0  0  0  0  0
    2.7112   -7.3732    6.1124 C   0  0  0  0  0  0  0  0  0  0  0  0
    1.8780   -6.1034    5.9541 C   0  0  0  0  0  0  0  0  0  0  0  0
    1.4695   -5.7938    4.5018 C   0  0  2  0  0  0  0  0  0  0  0  0
    1.2562   -6.9498    3.5247 C   0  0  1  0  0  0  0  0  0  0  0  0
   -0.1426   -7.1893    3.6269 O   0  0  0  0  0  0  0  0  0  0  0  0
   -2.2864    1.7089    4.2501 H   0  0  0  0  0  0  0  0  0  0  0  0
   -0.8093    0.8968    4.7011 H   0  0  0  0  0  0  0  0  0  0  0  0
   -1.7592    0.2950    3.3462 H   0  0  0  0  0  0  0  0  0  0  0  0
   -1.3401    2.4303    2.0918 H   0  0  0  0  0  0  0  0  0  0  0  0
   -0.3291    3.0144    3.3773 H   0  0  0  0  0  0  0  0  0  0  0  0
    0.2249    0.5782    1.6118 H   0  0  0  0  0  0  0  0  0  0  0  0
    0.9894    2.1371    1.4834 H   0  0  0  0  0  0  0  0  0  0  0  0
    1.9642    1.8721    3.7806 H   0  0  0  0  0  0  0  0  0  0  0  0
    1.1857    0.3185    3.8991 H   0  0  0  0  0  0  0  0  0  0  0  0
    2.5001   -0.4858    1.9026 H   0  0  0  0  0  0  0  0  0  0  0  0
    3.3403    1.0379    1.8883 H   0  0  0  0  0  0  0  0  0  0  0  0
    4.7649   -0.4905    3.0838 H   0  0  0  0  0  0  0  0  0  0  0  0
    4.1357    0.6107    4.2504 H   0  0  0  0  0  0  0  0  0  0  0  0
    3.9805   -1.5401    5.2937 H   0  0  0  0  0  0  0  0  0  0  0  0
    2.3402   -1.1702    4.8632 H   0  0  0  0  0  0  0  0  0  0  0  0
    3.4547   -5.2968    3.7782 H   0  0  0  0  0  0  0  0  0  0  0  0
    2.9446   -6.1014    0.4706 H   0  0  0  0  0  0  0  0  0  0  0  0
    2.6324   -7.7534    0.9056 H   0  0  0  0  0  0  0  0  0  0  0  0
    3.6858   -6.7639    1.8981 H   0  0  0  0  0  0  0  0  0  0  0  0
   -2.4942   -7.0663    2.4739 H   0  0  0  0  0  0  0  0  0  0  0  0
   -2.4562   -8.3619    3.6530 H   0  0  0  0  0  0  0  0  0  0  0  0
   -2.5412   -8.7510    1.9423 H   0  0  0  0  0  0  0  0  0  0  0  0
   -0.4322   -9.8158    3.8898 H   0  0  0  0  0  0  0  0  0  0  0  0
   -0.3547  -10.1854    2.1769 H   0  0  0  0  0  0  0  0  0  0  0  0
    1.8612  -10.3988    3.3420 H   0  0  0  0  0  0  0  0  0  0  0  0
    1.8691   -9.3657    1.9826 H   0  0  0  0  0  0  0  0  0  0  0  0
    3.0713   -8.1396    3.5929 H   0  0  0  0  0  0  0  0  0  0  0  0
    1.0468   -8.6881    5.7460 H   0  0  0  0  0  0  0  0  0  0  0  0
    3.8371   -9.8678    5.3233 H   0  0  0  0  0  0  0  0  0  0  0  0
    2.3109  -10.7478    5.4398 H   0  0  0  0  0  0  0  0  0  0  0  0
    2.9455   -9.9395    6.8354 H   0  0  0  0  0  0  0  0  0  0  0  0
    2.8300   -7.5984    7.1776 H   0  0  0  0  0  0  0  0  0  0  0  0
    3.7093   -7.1850    5.7192 H   0  0  0  0  0  0  0  0  0  0  0  0
    0.9626   -6.2831    6.5118 H   0  0  0  0  0  0  0  0  0  0  0  0
    2.3561   -5.2465    6.4441 H   0  0  0  0  0  0  0  0  0  0  0  0
    0.5464   -5.2121    4.5517 H   0  0  0  0  0  0  0  0  0  0  0  0
  1  2  1  0
  1 29  1  0
  1 30  1  0
  1 31  1  0
  2  3  1  0
  2 32  1  0
  2 33  1  0
  3  4  1  0
  3 34  1  0
  3 35  1  0
  4  5  1  0
  4 36  1  0
  4 37  1  0
  5  6  1  0
  5 38  1  0
  5 39  1  0
  6  7  1  0
  6 40  1  0
  6 41  1  0
  7  8  1  0
  7 42  1  0
  7 43  1  0
  8  9  2  0
  8 10  1  0
 10 11  1  0
 11 26  1  0
 11 12  1  0
 11 44  1  6
 12 13  1  0
 13 27  1  0
 13 14  1  6
 13 15  1  0
 14 45  1  0
 14 46  1  0
 14 47  1  0
 15 16  1  0
 16 17  1  0
 17 28  1  0
 17 18  1  6
 17 19  1  0
 18 48  1  0
 18 49  1  0
 18 50  1  0
 19 20  1  0
 19 51  1  0
 19 52  1  0
 20 21  1  0
 20 53  1  0
 20 54  1  0
 21 27  1  0
 21 22  1  0
 21 55  1  6
 22 23  1  0
 22 24  1  0
 22 56  1  1
 23 57  1  0
 23 58  1  0
 23 59  1  0
 24 25  1  0
 24 60  1  0
 24 61  1  0
 25 26  1  0
 25 62  1  0
 25 63  1  0
 26 27  1  0
 26 64  1  1
 27 28  1  6
M  END
>  <i_m_ct_stereo_status>  (180) 
1

>  <s_m_source_file>  (180) 
/var/tmp/pbs.5076255.sched01/tmppxy1xzy0/80exjuxwr6.sdf

>  <i_m_source_file_index>  (180) 
8

>  <i_lp_mmshare_version>  (180) 
48012

>  <i_f3d_flags>  (180) 
0

>  <s_epik_input>  (180) 
W0NIM11bQ0gyXVtDSDJdW0NIMl1bQ0gyXVtDSDJdW0NIMl1DKD1PKU9bQ0BIXShPW0NAXTEoW0NAQF0yMzQpW0NIM10pW0NAQEhdM1tDSDJdW0NIMl1bQ0BIXShbQ0gzXSlbQ0BIXTJbQ0gyXVtDSDJdW0NAQF0oTzQpKE9PMSlbQ0gzXQ==

>  <s_epik_cmdline>  (180) 
J2VwaWtfcHl0aG9uJywgJy1waHQnLCAnMi4wJywgJy1waCcsICc3LjAnLCAnLXRuJywgJzgnLCAnLW1hJywgJzIwMCcsICctaW1hZScsICc8aW5maWxlLm1hZT4nLCAnLW9tYWUnLCAnPG91dGZpbGUubWFlPic=

>  <r_lp_tautomer_probability>  (180) 
1

>  <r_epik_Ionization_Penalty>  (180) 
1.71026e-15

>  <r_epik_Ionization_Penalty_Charging>  (180) 
0

>  <r_epik_Ionization_Penalty_Neutral>  (180) 
1.71026e-15

>  <r_epik_State_Penalty>  (180) 
-0

>  <r_epik_Charging_Adjusted_Penalty>  (180) 
0

>  <i_epik_Tot_Q>  (180) 
0

>  <i_epik_Tot_abs_Q>  (180) 
0

>  <s_epik_Chemistry_Notes>  (180) 
This compound has an ester and may undergo hydrolysis at high or low pH. This compound contains an acetal/aminal-like group ( X-CH(R)-Y where X, Y are N, S, or O) that may be acid/base labile, releasing an aldehyde.

>  <s_lp_Force_Field>  (180) 
OPLS3e

>  <r_lp_Energy>  (180) 
34.1872

>  <b_lp_Chiralities_Consistent>  (180) 
1

>  <s_lp_Variant>  (180) 
62:0-1

>  <s_i_glide_gridfile>  (180) 
pfpi4k_grid

>  <i_i_glide_lignum>  (180) 
8

>  <i_i_glide_rotatable_bonds>  (180) 
8

>  <r_i_docking_score>  (180) 
-1.52806

>  <r_i_glide_ligand_efficiency>  (180) 
-0.0545737

>  <r_i_glide_ligand_efficiency_sa>  (180) 
-0.165718

>  <r_i_glide_ligand_efficiency_ln>  (180) 
-0.352722

>  <r_i_glide_gscore>  (180) 
-1.52806

>  <r_i_glide_lipo>  (180) 
-0.0583249

>  <r_i_glide_hbond>  (180) 
-0.199343

>  <r_i_glide_metal>  (180) 
-0

>  <r_i_glide_rewards>  (180) 
-0.705562

>  <r_i_glide_evdw>  (180) 
-21.9932

>  <r_i_glide_ecoul>  (180) 
-1.60039

>  <r_i_glide_erotb>  (180) 
0.871098

>  <r_i_glide_esite>  (180) 
-0.0962175

>  <r_i_glide_emodel>  (180) 
-24.8384

>  <r_i_glide_energy>  (180) 
-23.5935

>  <r_i_glide_einternal>  (180) 
2.39103

>  <r_i_glide_intrahb_reward>  (180) 
-0

>  <i_i_glide_confnum>  (180) 
3

>  <i_i_glide_posenum>  (180) 
2

>  <r_i_glide_eff_state_penalty>  (180) 
0

>  <ligand_id>  (180) 
62

>  <original_smiles>  (180) 
CCCCCCCC(=O)OC1OC2(C)OOC3(C)CCC4C(C)CCC1C42O3

>  <smiles>  (180) 
[H]C([H])([H])C([H])([H])C([H])([H])C([H])([H])C([H])([H])C([H])([H])C([H])([H])C(=O)OC1([H])OC2(C([H])([H])[H])OOC3(C([H])([H])[H])OC24C1([H])C([H])([H])C([H])([H])C([H])(C([H])([H])[H])C4([H])C([H])([H])C3([H])[H]

$$$$
62:0:2
     RDKit          3D

 64 67  0  0  1  0  0  0  0  0999 V2000
   -0.9988    0.9234    3.5772 C   0  0  0  0  0  0  0  0  0  0  0  0
   -0.1411    1.9404    2.8121 C   0  0  0  0  0  0  0  0  0  0  0  0
    1.0506    1.3237    2.0702 C   0  0  0  0  0  0  0  0  0  0  0  0
    2.1163    0.7612    3.0152 C   0  0  0  0  0  0  0  0  0  0  0  0
    3.3029    0.1543    2.2676 C   0  0  0  0  0  0  0  0  0  0  0  0
    4.3624   -0.4432    3.2239 C   0  0  0  0  0  0  0  0  0  0  0  0
    3.9146   -1.6363    4.1061 C   0  0  0  0  0  0  0  0  0  0  0  0
    3.6252   -2.9246    3.3242 C   0  0  0  0  0  0  0  0  0  0  0  0
    3.8269   -3.0326    2.1170 O   0  0  0  0  0  0  0  0  0  0  0  0
    3.1777   -3.9110    4.1345 O   0  0  0  0  0  0  0  0  0  0  0  0
    2.9043   -5.0947    3.4686 C   0  0  2  0  0  0  0  0  0  0  0  0
    1.7805   -4.9830    2.6548 O   0  0  0  0  0  0  0  0  0  0  0  0
    1.2441   -6.2738    2.3912 C   0  0  2  0  0  0  0  0  0  0  0  0
    1.7354   -6.5516    0.9597 C   0  0  0  0  0  0  0  0  0  0  0  0
   -0.1755   -6.2690    2.4320 O   0  0  0  0  0  0  0  0  0  0  0  0
   -0.6253   -7.7238    2.3868 O   0  0  0  0  0  0  0  0  0  0  0  0
   -0.2774   -8.3055    3.6429 C   0  0  1  0  0  0  0  0  0  0  0  0
   -1.5291   -8.3998    4.5164 C   0  0  0  0  0  0  0  0  0  0  0  0
    0.3181   -9.6969    3.3698 C   0  0  0  0  0  0  0  0  0  0  0  0
    1.6207   -9.5473    2.5824 C   0  0  0  0  0  0  0  0  0  0  0  0
    2.5580   -8.4839    3.1853 C   0  0  2  0  0  0  0  0  0  0  0  0
    3.4437   -8.9960    4.3492 C   0  0  1  0  0  0  0  0  0  0  0  0
    4.2637  -10.2459    3.9931 C   0  0  0  0  0  0  0  0  0  0  0  0
    4.4007   -7.8710    4.7765 C   0  0  0  0  0  0  0  0  0  0  0  0
    3.6483   -6.6598    5.3299 C   0  0  0  0  0  0  0  0  0  0  0  0
    2.4898   -6.1841    4.4372 C   0  0  2  0  0  0  0  0  0  0  0  0
    1.7572   -7.1974    3.5579 C   0  0  1  0  0  0  0  0  0  0  0  0
    0.6664   -7.5704    4.3738 O   0  0  0  0  0  0  0  0  0  0  0  0
   -1.8533    1.4063    4.0505 H   0  0  0  0  0  0  0  0  0  0  0  0
   -0.4430    0.4122    4.3628 H   0  0  0  0  0  0  0  0  0  0  0  0
   -1.3866    0.1719    2.8946 H   0  0  0  0  0  0  0  0  0  0  0  0
   -0.7729    2.4418    2.0811 H   0  0  0  0  0  0  0  0  0  0  0  0
    0.2146    2.7202    3.4835 H   0  0  0  0  0  0  0  0  0  0  0  0
    0.7047    0.5536    1.3797 H   0  0  0  0  0  0  0  0  0  0  0  0
    1.5076    2.0960    1.4528 H   0  0  0  0  0  0  0  0  0  0  0  0
    2.4581    1.5422    3.6953 H   0  0  0  0  0  0  0  0  0  0  0  0
    1.6676   -0.0142    3.6291 H   0  0  0  0  0  0  0  0  0  0  0  0
    2.9185   -0.5816    1.5633 H   0  0  0  0  0  0  0  0  0  0  0  0
    3.7713    0.9219    1.6504 H   0  0  0  0  0  0  0  0  0  0  0  0
    5.2474   -0.7306    2.6547 H   0  0  0  0  0  0  0  0  0  0  0  0
    4.7019    0.3443    3.8888 H   0  0  0  0  0  0  0  0  0  0  0  0
    4.6958   -1.8692    4.8259 H   0  0  0  0  0  0  0  0  0  0  0  0
    3.0316   -1.3767    4.6869 H   0  0  0  0  0  0  0  0  0  0  0  0
    3.7539   -5.4118    2.8522 H   0  0  0  0  0  0  0  0  0  0  0  0
    1.4363   -5.7446    0.2894 H   0  0  0  0  0  0  0  0  0  0  0  0
    1.3165   -7.4604    0.5440 H   0  0  0  0  0  0  0  0  0  0  0  0
    2.8273   -6.5958    0.9064 H   0  0  0  0  0  0  0  0  0  0  0  0
   -1.9197   -7.4153    4.7584 H   0  0  0  0  0  0  0  0  0  0  0  0
   -1.2657   -8.8874    5.4557 H   0  0  0  0  0  0  0  0  0  0  0  0
   -2.3179   -8.9967    4.0524 H   0  0  0  0  0  0  0  0  0  0  0  0
    0.5063  -10.2051    4.3193 H   0  0  0  0  0  0  0  0  0  0  0  0
   -0.3943  -10.3078    2.8137 H   0  0  0  0  0  0  0  0  0  0  0  0
    2.0940  -10.5141    2.4869 H   0  0  0  0  0  0  0  0  0  0  0  0
    1.3728   -9.2790    1.5704 H   0  0  0  0  0  0  0  0  0  0  0  0
    3.2736   -8.2199    2.3966 H   0  0  0  0  0  0  0  0  0  0  0  0
    2.7964   -9.2518    5.1920 H   0  0  0  0  0  0  0  0  0  0  0  0
    4.8392  -10.1117    3.0785 H   0  0  0  0  0  0  0  0  0  0  0  0
    3.6341  -11.1242    3.8723 H   0  0  0  0  0  0  0  0  0  0  0  0
    4.9625  -10.4818    4.7912 H   0  0  0  0  0  0  0  0  0  0  0  0
    5.0923   -8.2385    5.5349 H   0  0  0  0  0  0  0  0  0  0  0  0
    5.0103   -7.5490    3.9264 H   0  0  0  0  0  0  0  0  0  0  0  0
    3.1968   -6.9997    6.2665 H   0  0  0  0  0  0  0  0  0  0  0  0
    4.3272   -5.8525    5.5918 H   0  0  0  0  0  0  0  0  0  0  0  0
    1.7591   -5.6976    5.0871 H   0  0  0  0  0  0  0  0  0  0  0  0
  1  2  1  0
  1 29  1  0
  1 30  1  0
  1 31  1  0
  2  3  1  0
  2 32  1  0
  2 33  1  0
  3  4  1  0
  3 34  1  0
  3 35  1  0
  4  5  1  0
  4 36  1  0
  4 37  1  0
  5  6  1  0
  5 38  1  0
  5 39  1  0
  6  7  1  0
  6 40  1  0
  6 41  1  0
  7  8  1  0
  7 42  1  0
  7 43  1  0
  8  9  2  0
  8 10  1  0
 10 11  1  0
 11 26  1  0
 11 12  1  0
 11 44  1  6
 12 13  1  0
 13 27  1  0
 13 14  1  6
 13 15  1  0
 14 45  1  0
 14 46  1  0
 14 47  1  0
 15 16  1  0
 16 17  1  0
 17 28  1  0
 17 18  1  1
 17 19  1  0
 18 48  1  0
 18 49  1  0
 18 50  1  0
 19 20  1  0
 19 51  1  0
 19 52  1  0
 20 21  1  0
 20 53  1  0
 20 54  1  0
 21 27  1  0
 21 22  1  0
 21 55  1  6
 22 23  1  0
 22 24  1  0
 22 56  1  1
 23 57  1  0
 23 58  1  0
 23 59  1  0
 24 25  1  0
 24 60  1  0
 24 61  1  0
 25 26  1  0
 25 62  1  0
 25 63  1  0
 26 27  1  0
 26 64  1  1
 27 28  1  1
M  END
>  <i_m_ct_stereo_status>  (181) 
1

>  <s_m_source_file>  (181) 
/var/tmp/pbs.5076255.sched01/tmppxy1xzy0/80exjuxwr6.sdf

>  <i_m_source_file_index>  (181) 
8

>  <i_lp_mmshare_version>  (181) 
48012

>  <i_f3d_flags>  (181) 
0

>  <s_epik_input>  (181) 
W0NIM11bQ0gyXVtDSDJdW0NIMl1bQ0gyXVtDSDJdW0NIMl1DKD1PKU9bQ0BIXShPW0NAXTEoW0NAQF0yMzQpW0NIM10pW0NAQEhdM1tDSDJdW0NIMl1bQ0BIXShbQ0gzXSlbQ0BIXTJbQ0gyXVtDSDJdW0NAQF0oTzQpKE9PMSlbQ0gzXQ==

>  <s_epik_cmdline>  (181) 
J2VwaWtfcHl0aG9uJywgJy1waHQnLCAnMi4wJywgJy1waCcsICc3LjAnLCAnLXRuJywgJzgnLCAnLW1hJywgJzIwMCcsICctaW1hZScsICc8aW5maWxlLm1hZT4nLCAnLW9tYWUnLCAnPG91dGZpbGUubWFlPic=

>  <r_lp_tautomer_probability>  (181) 
1

>  <r_epik_Ionization_Penalty>  (181) 
1.71026e-15

>  <r_epik_Ionization_Penalty_Charging>  (181) 
0

>  <r_epik_Ionization_Penalty_Neutral>  (181) 
1.71026e-15

>  <r_epik_State_Penalty>  (181) 
-0

>  <r_epik_Charging_Adjusted_Penalty>  (181) 
0

>  <i_epik_Tot_Q>  (181) 
0

>  <i_epik_Tot_abs_Q>  (181) 
0

>  <s_epik_Chemistry_Notes>  (181) 
This compound has an ester and may undergo hydrolysis at high or low pH. This compound contains an acetal/aminal-like group ( X-CH(R)-Y where X, Y are N, S, or O) that may be acid/base labile, releasing an aldehyde.

>  <s_lp_Force_Field>  (181) 
OPLS3e

>  <r_lp_Energy>  (181) 
34.1872

>  <b_lp_Chiralities_Consistent>  (181) 
1

>  <s_lp_Variant>  (181) 
62:0-1

>  <s_i_glide_gridfile>  (181) 
pfpi4k_grid

>  <i_i_glide_lignum>  (181) 
8

>  <i_i_glide_rotatable_bonds>  (181) 
8

>  <r_i_docking_score>  (181) 
-1.52332

>  <r_i_glide_ligand_efficiency>  (181) 
-0.0544043

>  <r_i_glide_ligand_efficiency_sa>  (181) 
-0.165203

>  <r_i_glide_ligand_efficiency_ln>  (181) 
-0.351627

>  <r_i_glide_gscore>  (181) 
-1.52332

>  <r_i_glide_lipo>  (181) 
-0.164236

>  <r_i_glide_hbond>  (181) 
-0.182953

>  <r_i_glide_metal>  (181) 
-0

>  <r_i_glide_rewards>  (181) 
-0.705623

>  <r_i_glide_evdw>  (181) 
-20.6663

>  <r_i_glide_ecoul>  (181) 
-1.4664

>  <r_i_glide_erotb>  (181) 
0.871098

>  <r_i_glide_esite>  (181) 
-0.0883313

>  <r_i_glide_emodel>  (181) 
-23.7537

>  <r_i_glide_energy>  (181) 
-22.1327

>  <r_i_glide_einternal>  (181) 
1.83912

>  <r_i_glide_intrahb_reward>  (181) 
-0

>  <i_i_glide_confnum>  (181) 
3

>  <i_i_glide_posenum>  (181) 
11

>  <r_i_glide_eff_state_penalty>  (181) 
0

>  <ligand_id>  (181) 
62

>  <original_smiles>  (181) 
CCCCCCCC(=O)OC1OC2(C)OOC3(C)CCC4C(C)CCC1C42O3

>  <smiles>  (181) 
[H]C([H])([H])C([H])([H])C([H])([H])C([H])([H])C([H])([H])C([H])([H])C([H])([H])C(=O)OC1([H])OC2(C([H])([H])[H])OOC3(C([H])([H])[H])OC24C1([H])C([H])([H])C([H])([H])C([H])(C([H])([H])[H])C4([H])C([H])([H])C3([H])[H]

$$$$
63:0:0
     RDKit          3D

 74 80  0  0  1  0  0  0  0  0999 V2000
    0.8443   -5.9308    0.2050 C   0  0  0  0  0  0  0  0  0  0  0  0
    1.8546   -5.6151    1.3265 C   0  0  2  0  0  0  0  0  0  0  0  0
    3.2751   -5.5336    0.7408 C   0  0  2  0  0  0  0  0  0  0  0  0
    4.0578   -6.6494    1.4457 C   0  0  0  0  0  0  0  0  0  0  0  0
    3.0894   -7.4255    2.1156 O   0  0  0  0  0  0  0  0  0  0  0  0
    1.9610   -6.6533    2.4864 C   0  0  2  0  0  0  0  0  0  0  0  0
    0.7499   -7.6638    2.4360 C   0  0  0  0  0  0  0  0  0  0  0  0
    0.7778   -8.9396    3.2970 C   0  0  0  0  0  0  0  0  0  0  0  0
    0.2597   -8.7752    4.7233 C   0  0  2  0  0  0  0  0  0  0  0  0
    0.0261   -7.3784    5.2524 C   0  0  0  0  0  0  0  0  0  0  0  0
    1.4239   -7.4705    5.8265 C   0  0  2  0  0  0  0  0  0  0  0  0
    2.5999   -6.9377    5.0122 C   0  0  0  0  0  0  0  0  0  0  0  0
    2.2382   -5.9305    3.8812 C   0  0  1  0  0  0  0  0  0  0  0  0
    3.3285   -4.8161    3.9647 C   0  0  0  0  0  0  0  0  0  0  0  0
    3.0910   -3.4547    3.2725 C   0  0  0  0  0  0  0  0  0  0  0  0
    3.7631   -3.1770    1.9292 C   0  0  1  0  0  0  0  0  0  0  0  0
    5.1123   -3.6965    1.5584 C   0  0  2  0  0  0  0  0  0  0  0  0
    6.1680   -2.7644    1.0201 C   0  0  0  0  0  0  0  0  0  0  0  0
    5.7021   -1.9253   -0.1825 C   0  0  0  0  0  0  0  0  0  0  0  0
    4.9977   -2.7518   -1.2789 C   0  0  2  0  0  0  0  0  0  0  0  0
    5.9593   -3.7891   -1.8400 C   0  0  0  0  0  0  0  0  0  0  0  0
    4.4171   -1.7692   -2.3500 C   0  0  1  0  0  0  0  0  0  0  0  0
    4.6828   -2.1130   -3.6755 O   0  0  0  0  0  0  0  0  0  0  0  0
    2.9069   -1.9157   -2.2761 C   0  0  0  0  0  0  0  0  0  0  0  0
    2.6595   -2.5731   -0.9208 C   0  0  0  0  0  0  0  0  0  0  0  0
    3.7890   -3.5314   -0.7249 C   0  0  2  0  0  0  0  0  0  0  0  0
    3.9053   -4.1216    0.7026 C   0  0  1  0  0  0  0  0  0  0  0  0
    1.1761   -9.0010    5.9596 C   0  0  0  0  0  0  0  0  0  0  0  0
    0.4918   -9.4855    7.2508 C   0  0  0  0  0  0  0  0  0  0  0  0
    2.3705   -9.9670    5.8461 C   0  0  0  0  0  0  0  0  0  0  0  0
    1.0222   -6.8996   -0.2282 H   0  0  0  0  0  0  0  0  0  0  0  0
    0.9301   -5.2231   -0.6197 H   0  0  0  0  0  0  0  0  0  0  0  0
   -0.1910   -5.9465    0.5484 H   0  0  0  0  0  0  0  0  0  0  0  0
    1.5293   -4.6677    1.7335 H   0  0  0  0  0  0  0  0  0  0  0  0
    3.2106   -5.9215   -0.2724 H   0  0  0  0  0  0  0  0  0  0  0  0
    4.5959   -7.2705    0.7276 H   0  0  0  0  0  0  0  0  0  0  0  0
    4.8011   -6.3203    2.1593 H   0  0  0  0  0  0  0  0  0  0  0  0
   -0.2003   -7.1433    2.5293 H   0  0  0  0  0  0  0  0  0  0  0  0
    0.7039   -8.0846    1.4346 H   0  0  0  0  0  0  0  0  0  0  0  0
    0.1234   -9.6638    2.8167 H   0  0  0  0  0  0  0  0  0  0  0  0
    1.7684   -9.3813    3.2300 H   0  0  0  0  0  0  0  0  0  0  0  0
   -0.6499   -9.3679    4.8925 H   0  0  0  0  0  0  0  0  0  0  0  0
   -0.2197   -6.6063    4.5571 H   0  0  0  0  0  0  0  0  0  0  0  0
   -0.6939   -7.3408    6.0101 H   0  0  0  0  0  0  0  0  0  0  0  0
    1.4101   -7.0471    6.8456 H   0  0  0  0  0  0  0  0  0  0  0  0
    3.2809   -6.4938    5.7383 H   0  0  0  0  0  0  0  0  0  0  0  0
    3.1952   -7.7282    4.5656 H   0  0  0  0  0  0  0  0  0  0  0  0
    1.3552   -5.3581    4.1547 H   0  0  0  0  0  0  0  0  0  0  0  0
    3.3380   -4.5188    5.0184 H   0  0  0  0  0  0  0  0  0  0  0  0
    4.3315   -5.2042    3.8293 H   0  0  0  0  0  0  0  0  0  0  0  0
    2.0270   -3.2253    3.2016 H   0  0  0  0  0  0  0  0  0  0  0  0
    3.4730   -2.6928    3.9515 H   0  0  0  0  0  0  0  0  0  0  0  0
    3.6139   -2.1248    1.6885 H   0  0  0  0  0  0  0  0  0  0  0  0
    5.5347   -4.3983    2.2733 H   0  0  0  0  0  0  0  0  0  0  0  0
    6.5021   -2.1168    1.8267 H   0  0  0  0  0  0  0  0  0  0  0  0
    7.0336   -3.3657    0.7378 H   0  0  0  0  0  0  0  0  0  0  0  0
    5.0302   -1.1393    0.1758 H   0  0  0  0  0  0  0  0  0  0  0  0
    6.5608   -1.4095   -0.6107 H   0  0  0  0  0  0  0  0  0  0  0  0
    5.4902   -4.3378   -2.6617 H   0  0  0  0  0  0  0  0  0  0  0  0
    6.1800   -4.4967   -1.0392 H   0  0  0  0  0  0  0  0  0  0  0  0
    6.8959   -3.3495   -2.1733 H   0  0  0  0  0  0  0  0  0  0  0  0
    4.7189   -0.7341   -2.1425 H   0  0  0  0  0  0  0  0  0  0  0  0
    4.6186   -3.0623   -3.7060 H   0  0  0  0  0  0  0  0  0  0  0  0
    2.4381   -0.9363   -2.3786 H   0  0  0  0  0  0  0  0  0  0  0  0
    2.5194   -2.5617   -3.0681 H   0  0  0  0  0  0  0  0  0  0  0  0
    2.7572   -1.7865   -0.1785 H   0  0  0  0  0  0  0  0  0  0  0  0
    1.7061   -3.0758   -0.8334 H   0  0  0  0  0  0  0  0  0  0  0  0
    3.5813   -4.3012   -1.4588 H   0  0  0  0  0  0  0  0  0  0  0  0
    1.1817   -9.4702    8.1042 H   0  0  0  0  0  0  0  0  0  0  0  0
    0.1535  -10.5202    7.1387 H   0  0  0  0  0  0  0  0  0  0  0  0
   -0.3871   -8.9050    7.5308 H   0  0  0  0  0  0  0  0  0  0  0  0
    3.0533   -9.8806    6.7004 H   0  0  0  0  0  0  0  0  0  0  0  0
    2.9793   -9.8175    4.9427 H   0  0  0  0  0  0  0  0  0  0  0  0
    2.0484  -11.0142    5.8200 H   0  0  0  0  0  0  0  0  0  0  0  0
  1  2  1  0
  1 31  1  0
  1 32  1  0
  1 33  1  0
  2  6  1  0
  2  3  1  0
  2 34  1  1
 27  3  1  1
  3  4  1  0
  3 35  1  6
  4  5  1  0
  4 36  1  0
  4 37  1  0
  6  5  1  6
  6 13  1  0
  6  7  1  0
  7  8  1  0
  7 38  1  0
  7 39  1  0
  8  9  1  0
  8 40  1  0
  8 41  1  0
  9 28  1  0
  9 10  1  0
  9 42  1  1
 10 11  1  0
 10 43  1  0
 10 44  1  0
 11 12  1  0
 11 28  1  0
 11 45  1  1
 12 13  1  0
 12 46  1  0
 12 47  1  0
 13 14  1  0
 13 48  1  1
 14 15  1  0
 14 49  1  0
 14 50  1  0
 15 16  1  0
 15 51  1  0
 15 52  1  0
 16 27  1  0
 16 17  1  0
 16 53  1  6
 17 27  1  0
 17 18  1  0
 17 54  1  1
 18 19  1  0
 18 55  1  0
 18 56  1  0
 19 20  1  0
 19 57  1  0
 19 58  1  0
 20 26  1  0
 20 21  1  6
 20 22  1  0
 21 59  1  0
 21 60  1  0
 21 61  1  0
 22 23  1  0
 22 24  1  0
 22 62  1  1
 23 63  1  0
 24 25  1  0
 24 64  1  0
 24 65  1  0
 25 26  1  0
 25 66  1  0
 25 67  1  0
 26 27  1  0
 26 68  1  6
 28 29  1  0
 28 30  1  0
 29 69  1  0
 29 70  1  0
 29 71  1  0
 30 72  1  0
 30 73  1  0
 30 74  1  0
M  END
>  <i_m_ct_stereo_status>  (182) 
1

>  <s_m_source_file>  (182) 
/var/tmp/pbs.5076255.sched01/tmppxy1xzy0/80exjuxwr6.sdf

>  <i_m_source_file_index>  (182) 
9

>  <i_lp_mmshare_version>  (182) 
48012

>  <i_f3d_flags>  (182) 
0

>  <s_epik_input>  (182) 
W09IXVtDQEhdMVtDSDJdW0NIMl1bQ0BIXTJbQ0BdMShbQ0gzXSlbQ0gyXVtDSDJdW0NAQEhdM1tDQEBdMihbQ0BASF0oW0NIMl1PNClbQ0BIXTVbQ0gzXSlbQ0BIXTNbQ0gyXVtDSDJdW0NAQEhdKFtDQF00NTYpW0NIMl1bQ0BIXTdbQ0gyXVtDQEBIXShbQ0gyXVtDSDJdNilDNyhbQ0gzXSlbQ0gzXQ==

>  <s_epik_cmdline>  (182) 
J2VwaWtfcHl0aG9uJywgJy1waHQnLCAnMi4wJywgJy1waCcsICc3LjAnLCAnLXRuJywgJzgnLCAnLW1hJywgJzIwMCcsICctaW1hZScsICc8aW5maWxlLm1hZT4nLCAnLW9tYWUnLCAnPG91dGZpbGUubWFlPic=

>  <r_lp_tautomer_probability>  (182) 
1

>  <r_epik_Ionization_Penalty>  (182) 
3.0925e-06

>  <r_epik_Ionization_Penalty_Charging>  (182) 
0

>  <r_epik_Ionization_Penalty_Neutral>  (182) 
3.0925e-06

>  <r_epik_State_Penalty>  (182) 
-0

>  <r_epik_Charging_Adjusted_Penalty>  (182) 
0

>  <i_epik_Tot_Q>  (182) 
0

>  <i_epik_Tot_abs_Q>  (182) 
0

>  <s_lp_Force_Field>  (182) 
OPLS3e

>  <r_lp_Energy>  (182) 
100.309

>  <b_lp_Chiralities_Consistent>  (182) 
1

>  <s_lp_Variant>  (182) 
63:0-1

>  <s_i_glide_gridfile>  (182) 
pfpi4k_grid

>  <i_i_glide_lignum>  (182) 
9

>  <i_i_glide_rotatable_bonds>  (182) 
1

>  <r_i_docking_score>  (182) 
-2.23641

>  <r_i_glide_ligand_efficiency>  (182) 
-0.074547

>  <r_i_glide_ligand_efficiency_sa>  (182) 
-0.231635

>  <r_i_glide_ligand_efficiency_ln>  (182) 
-0.508137

>  <r_i_glide_gscore>  (182) 
-2.23641

>  <r_i_glide_lipo>  (182) 
-0.334332

>  <r_i_glide_hbond>  (182) 
0

>  <r_i_glide_metal>  (182) 
-0

>  <r_i_glide_rewards>  (182) 
-0.595583

>  <r_i_glide_evdw>  (182) 
-18.7256

>  <r_i_glide_ecoul>  (182) 
-2.4681

>  <r_i_glide_erotb>  (182) 
0

>  <r_i_glide_esite>  (182) 
0

>  <r_i_glide_emodel>  (182) 
-21.4359

>  <r_i_glide_energy>  (182) 
-21.1937

>  <r_i_glide_einternal>  (182) 
0.0552909

>  <r_i_glide_intrahb_reward>  (182) 
-0

>  <i_i_glide_confnum>  (182) 
1

>  <i_i_glide_posenum>  (182) 
7

>  <r_i_glide_eff_state_penalty>  (182) 
0

>  <ligand_id>  (182) 
63

>  <original_smiles>  (182) 
CC1C2COC13CCC1CC(CC3CCC3C4CCC5(C)C(O)CCC5C234)C1(C)C

>  <smiles>  (182) 
[H]OC1([H])C([H])([H])C([H])([H])C2([H])C1(C([H])([H])[H])C([H])([H])C([H])([H])C1([H])C3([H])C([H])([H])C([H])([H])C4([H])C([H])([H])C5([H])C([H])([H])C([H])(C([H])([H])C([H])([H])C46OC([H])([H])C([H])(C6([H])C([H])([H])[H])C312)C5(C([H])([H])[H])C([H])([H])[H]

$$$$
63:0:1
     RDKit          3D

 74 80  0  0  1  0  0  0  0  0999 V2000
    1.2827   -6.1870    0.9197 C   0  0  0  0  0  0  0  0  0  0  0  0
    2.2637   -5.6643    1.9951 C   0  0  2  0  0  0  0  0  0  0  0  0
    3.6673   -5.5028    1.3861 C   0  0  2  0  0  0  0  0  0  0  0  0
    4.5605   -6.4459    2.2101 C   0  0  0  0  0  0  0  0  0  0  0  0
    3.6786   -7.2379    2.9831 O   0  0  0  0  0  0  0  0  0  0  0  0
    2.4774   -6.5381    3.2801 C   0  0  2  0  0  0  0  0  0  0  0  0
    1.3693   -7.6535    3.3882 C   0  0  0  0  0  0  0  0  0  0  0  0
    1.5245   -8.8144    4.3886 C   0  0  0  0  0  0  0  0  0  0  0  0
    0.9927   -8.5775    5.8211 C   0  0  2  0  0  0  0  0  0  0  0  0
    0.5749   -7.1746    6.2583 C   0  0  0  0  0  0  0  0  0  0  0  0
    2.0219   -7.0396    6.7379 C   0  0  2  0  0  0  0  0  0  0  0  0
    3.1289   -6.4781    5.8128 C   0  0  0  0  0  0  0  0  0  0  0  0
    2.6764   -5.6427    4.5827 C   0  0  1  0  0  0  0  0  0  0  0  0
    3.6592   -4.4217    4.5099 C   0  0  0  0  0  0  0  0  0  0  0  0
    3.2841   -3.1818    3.6718 C   0  0  0  0  0  0  0  0  0  0  0  0
    3.9231   -2.9829    2.2864 C   0  0  1  0  0  0  0  0  0  0  0  0
    5.3072   -3.4133    1.9360 C   0  0  2  0  0  0  0  0  0  0  0  0
    6.2699   -2.4429    1.2752 C   0  0  0  0  0  0  0  0  0  0  0  0
    5.7107   -1.8066    0.0012 C   0  0  0  0  0  0  0  0  0  0  0  0
    5.0935   -2.8288   -0.9758 C   0  0  2  0  0  0  0  0  0  0  0  0
    6.1767   -3.8087   -1.4525 C   0  0  0  0  0  0  0  0  0  0  0  0
    4.4388   -2.0459   -2.1601 C   0  0  1  0  0  0  0  0  0  0  0  0
    4.8750   -2.4250   -3.4452 O   0  0  0  0  0  0  0  0  0  0  0  0
    2.9332   -2.2874   -2.0603 C   0  0  0  0  0  0  0  0  0  0  0  0
    2.7048   -2.7555   -0.6187 C   0  0  0  0  0  0  0  0  0  0  0  0
    3.9296   -3.6114   -0.3107 C   0  0  2  0  0  0  0  0  0  0  0  0
    4.1263   -4.0336    1.1732 C   0  0  1  0  0  0  0  0  0  0  0  0
    1.9686   -8.5645    7.0326 C   0  0  0  0  0  0  0  0  0  0  0  0
    1.3688   -8.9766    8.4016 C   0  0  0  0  0  0  0  0  0  0  0  0
    3.2621   -9.3932    6.9753 C   0  0  0  0  0  0  0  0  0  0  0  0
    1.5876   -7.1550    0.5263 H   0  0  0  0  0  0  0  0  0  0  0  0
    1.2574   -5.5076    0.0668 H   0  0  0  0  0  0  0  0  0  0  0  0
    0.2675   -6.2881    1.3019 H   0  0  0  0  0  0  0  0  0  0  0  0
    1.8280   -4.7141    2.2811 H   0  0  0  0  0  0  0  0  0  0  0  0
    3.6538   -6.0074    0.4207 H   0  0  0  0  0  0  0  0  0  0  0  0
    5.1519   -7.0964    1.5647 H   0  0  0  0  0  0  0  0  0  0  0  0
    5.2762   -5.9776    2.8718 H   0  0  0  0  0  0  0  0  0  0  0  0
    0.3723   -7.2155    3.4539 H   0  0  0  0  0  0  0  0  0  0  0  0
    1.3668   -8.1850    2.4379 H   0  0  0  0  0  0  0  0  0  0  0  0
    0.9611   -9.6616    3.9916 H   0  0  0  0  0  0  0  0  0  0  0  0
    2.5497   -9.1607    4.3721 H   0  0  0  0  0  0  0  0  0  0  0  0
    0.1918   -9.2758    6.0561 H   0  0  0  0  0  0  0  0  0  0  0  0
    0.2438   -6.5087    5.4845 H   0  0  0  0  0  0  0  0  0  0  0  0
   -0.1602   -7.1729    7.0688 H   0  0  0  0  0  0  0  0  0  0  0  0
    2.0066   -6.5076    7.6868 H   0  0  0  0  0  0  0  0  0  0  0  0
    3.7833   -5.8957    6.4637 H   0  0  0  0  0  0  0  0  0  0  0  0
    3.7932   -7.2525    5.4577 H   0  0  0  0  0  0  0  0  0  0  0  0
    1.7246   -5.1639    4.8111 H   0  0  0  0  0  0  0  0  0  0  0  0
    3.6632   -4.0078    5.5212 H   0  0  0  0  0  0  0  0  0  0  0  0
    4.6990   -4.7166    4.3958 H   0  0  0  0  0  0  0  0  0  0  0  0
    2.2023   -3.0810    3.5865 H   0  0  0  0  0  0  0  0  0  0  0  0
    3.5804   -2.3062    4.2491 H   0  0  0  0  0  0  0  0  0  0  0  0
    3.6669   -1.9937    1.9330 H   0  0  0  0  0  0  0  0  0  0  0  0
    5.8053   -3.9866    2.6974 H   0  0  0  0  0  0  0  0  0  0  0  0
    6.5433   -1.6730    1.9944 H   0  0  0  0  0  0  0  0  0  0  0  0
    7.1836   -2.9867    1.0450 H   0  0  0  0  0  0  0  0  0  0  0  0
    4.9540   -1.0685    0.2716 H   0  0  0  0  0  0  0  0  0  0  0  0
    6.5009   -1.2409   -0.4962 H   0  0  0  0  0  0  0  0  0  0  0  0
    5.7553   -4.4837   -2.1941 H   0  0  0  0  0  0  0  0  0  0  0  0
    6.5344   -4.4206   -0.6238 H   0  0  0  0  0  0  0  0  0  0  0  0
    7.0352   -3.3050   -1.8999 H   0  0  0  0  0  0  0  0  0  0  0  0
    4.6364   -0.9741   -2.0672 H   0  0  0  0  0  0  0  0  0  0  0  0
    4.7073   -3.3601   -3.5499 H   0  0  0  0  0  0  0  0  0  0  0  0
    2.3761   -1.3887   -2.3218 H   0  0  0  0  0  0  0  0  0  0  0  0
    2.6110   -3.0741   -2.7470 H   0  0  0  0  0  0  0  0  0  0  0  0
    2.6450   -1.8786    0.0252 H   0  0  0  0  0  0  0  0  0  0  0  0
    1.7767   -3.3034   -0.5201 H   0  0  0  0  0  0  0  0  0  0  0  0
    3.7979   -4.4967   -0.9289 H   0  0  0  0  0  0  0  0  0  0  0  0
    2.0542   -8.7397    9.2185 H   0  0  0  0  0  0  0  0  0  0  0  0
    1.1802  -10.0518    8.4417 H   0  0  0  0  0  0  0  0  0  0  0  0
    0.4266   -8.4884    8.6305 H   0  0  0  0  0  0  0  0  0  0  0  0
    3.9538   -9.1234    7.7767 H   0  0  0  0  0  0  0  0  0  0  0  0
    3.8218   -9.2737    6.0473 H   0  0  0  0  0  0  0  0  0  0  0  0
    3.0639  -10.4643    7.0637 H   0  0  0  0  0  0  0  0  0  0  0  0
  1  2  1  0
  1 31  1  0
  1 32  1  0
  1 33  1  0
  2  6  1  0
  2  3  1  0
  2 34  1  1
 27  3  1  1
  3  4  1  0
  3 35  1  6
  4  5  1  0
  4 36  1  0
  4 37  1  0
  6  5  1  6
  6 13  1  0
  6  7  1  0
  7  8  1  0
  7 38  1  0
  7 39  1  0
  8  9  1  0
  8 40  1  0
  8 41  1  0
  9 28  1  0
  9 10  1  0
  9 42  1  1
 10 11  1  0
 10 43  1  0
 10 44  1  0
 11 12  1  0
 11 28  1  0
 11 45  1  1
 12 13  1  0
 12 46  1  0
 12 47  1  0
 13 14  1  0
 13 48  1  1
 14 15  1  0
 14 49  1  0
 14 50  1  0
 15 16  1  0
 15 51  1  0
 15 52  1  0
 16 27  1  0
 16 17  1  0
 16 53  1  6
 17 27  1  0
 17 18  1  0
 17 54  1  1
 18 19  1  0
 18 55  1  0
 18 56  1  0
 19 20  1  0
 19 57  1  0
 19 58  1  0
 20 26  1  0
 20 21  1  6
 20 22  1  0
 21 59  1  0
 21 60  1  0
 21 61  1  0
 22 23  1  0
 22 24  1  0
 22 62  1  1
 23 63  1  0
 24 25  1  0
 24 64  1  0
 24 65  1  0
 25 26  1  0
 25 66  1  0
 25 67  1  0
 26 27  1  0
 26 68  1  6
 28 29  1  0
 28 30  1  0
 29 69  1  0
 29 70  1  0
 29 71  1  0
 30 72  1  0
 30 73  1  0
 30 74  1  0
M  END
>  <i_m_ct_stereo_status>  (183) 
1

>  <s_m_source_file>  (183) 
/var/tmp/pbs.5076255.sched01/tmppxy1xzy0/80exjuxwr6.sdf

>  <i_m_source_file_index>  (183) 
9

>  <i_lp_mmshare_version>  (183) 
48012

>  <i_f3d_flags>  (183) 
0

>  <s_epik_input>  (183) 
W09IXVtDQEhdMVtDSDJdW0NIMl1bQ0BIXTJbQ0BdMShbQ0gzXSlbQ0gyXVtDSDJdW0NAQEhdM1tDQEBdMihbQ0BASF0oW0NIMl1PNClbQ0BIXTVbQ0gzXSlbQ0BIXTNbQ0gyXVtDSDJdW0NAQEhdKFtDQF00NTYpW0NIMl1bQ0BIXTdbQ0gyXVtDQEBIXShbQ0gyXVtDSDJdNilDNyhbQ0gzXSlbQ0gzXQ==

>  <s_epik_cmdline>  (183) 
J2VwaWtfcHl0aG9uJywgJy1waHQnLCAnMi4wJywgJy1waCcsICc3LjAnLCAnLXRuJywgJzgnLCAnLW1hJywgJzIwMCcsICctaW1hZScsICc8aW5maWxlLm1hZT4nLCAnLW9tYWUnLCAnPG91dGZpbGUubWFlPic=

>  <r_lp_tautomer_probability>  (183) 
1

>  <r_epik_Ionization_Penalty>  (183) 
3.0925e-06

>  <r_epik_Ionization_Penalty_Charging>  (183) 
0

>  <r_epik_Ionization_Penalty_Neutral>  (183) 
3.0925e-06

>  <r_epik_State_Penalty>  (183) 
-0

>  <r_epik_Charging_Adjusted_Penalty>  (183) 
0

>  <i_epik_Tot_Q>  (183) 
0

>  <i_epik_Tot_abs_Q>  (183) 
0

>  <s_lp_Force_Field>  (183) 
OPLS3e

>  <r_lp_Energy>  (183) 
100.309

>  <b_lp_Chiralities_Consistent>  (183) 
1

>  <s_lp_Variant>  (183) 
63:0-1

>  <s_i_glide_gridfile>  (183) 
pfpi4k_grid

>  <i_i_glide_lignum>  (183) 
9

>  <i_i_glide_rotatable_bonds>  (183) 
1

>  <r_i_docking_score>  (183) 
-2.11528

>  <r_i_glide_ligand_efficiency>  (183) 
-0.0705093

>  <r_i_glide_ligand_efficiency_sa>  (183) 
-0.219089

>  <r_i_glide_ligand_efficiency_ln>  (183) 
-0.480615

>  <r_i_glide_gscore>  (183) 
-2.11528

>  <r_i_glide_lipo>  (183) 
-0.296675

>  <r_i_glide_hbond>  (183) 
0

>  <r_i_glide_metal>  (183) 
-0

>  <r_i_glide_rewards>  (183) 
-0.595583

>  <r_i_glide_evdw>  (183) 
-18.5449

>  <r_i_glide_ecoul>  (183) 
-1.97184

>  <r_i_glide_erotb>  (183) 
0

>  <r_i_glide_esite>  (183) 
0

>  <r_i_glide_emodel>  (183) 
-22.838

>  <r_i_glide_energy>  (183) 
-20.5168

>  <r_i_glide_einternal>  (183) 
0.00491765

>  <r_i_glide_intrahb_reward>  (183) 
-0

>  <i_i_glide_confnum>  (183) 
1

>  <i_i_glide_posenum>  (183) 
31

>  <r_i_glide_eff_state_penalty>  (183) 
0

>  <ligand_id>  (183) 
63

>  <original_smiles>  (183) 
CC1C2COC13CCC1CC(CC3CCC3C4CCC5(C)C(O)CCC5C234)C1(C)C

>  <smiles>  (183) 
[H]OC1([H])C([H])([H])C([H])([H])C2([H])C1(C([H])([H])[H])C([H])([H])C([H])([H])C1([H])C3([H])C([H])([H])C([H])([H])C4([H])C([H])([H])C5([H])C([H])([H])C([H])(C([H])([H])C([H])([H])C46OC([H])([H])C([H])(C6([H])C([H])([H])[H])C312)C5(C([H])([H])[H])C([H])([H])[H]

$$$$
63:0:2
     RDKit          3D

 74 80  0  0  1  0  0  0  0  0999 V2000
    1.2283   -6.1548    0.9270 C   0  0  0  0  0  0  0  0  0  0  0  0
    2.1935   -5.6281    2.0162 C   0  0  2  0  0  0  0  0  0  0  0  0
    3.6082   -5.4773    1.4308 C   0  0  2  0  0  0  0  0  0  0  0  0
    4.4830   -6.4218    2.2728 C   0  0  0  0  0  0  0  0  0  0  0  0
    3.5829   -7.2039    3.0348 O   0  0  0  0  0  0  0  0  0  0  0  0
    2.3823   -6.4933    3.3104 C   0  0  2  0  0  0  0  0  0  0  0  0
    1.2667   -7.6025    3.4079 C   0  0  0  0  0  0  0  0  0  0  0  0
    1.3987   -8.7605    4.4186 C   0  0  0  0  0  0  0  0  0  0  0  0
    0.8486   -8.5131    5.8413 C   0  0  2  0  0  0  0  0  0  0  0  0
    0.4451   -7.0993    6.2582 C   0  0  0  0  0  0  0  0  0  0  0  0
    1.8797   -6.9734    6.7644 C   0  0  2  0  0  0  0  0  0  0  0  0
    2.9999   -6.4242    5.8540 C   0  0  0  0  0  0  0  0  0  0  0  0
    2.5699   -5.5918    4.6117 C   0  0  1  0  0  0  0  0  0  0  0  0
    3.5596   -4.3769    4.5481 C   0  0  0  0  0  0  0  0  0  0  0  0
    3.2033   -3.1402    3.6952 C   0  0  0  0  0  0  0  0  0  0  0  0
    3.8644   -2.9521    2.3193 C   0  0  1  0  0  0  0  0  0  0  0  0
    5.2520   -3.3916    1.9929 C   0  0  2  0  0  0  0  0  0  0  0  0
    6.2305   -2.4315    1.3388 C   0  0  0  0  0  0  0  0  0  0  0  0
    5.6948   -1.7977    0.0535 C   0  0  0  0  0  0  0  0  0  0  0  0
    5.0920   -2.8260   -0.9264 C   0  0  2  0  0  0  0  0  0  0  0  0
    6.1774   -3.8186   -1.3788 C   0  0  0  0  0  0  0  0  0  0  0  0
    4.4616   -2.0510   -2.1286 C   0  0  1  0  0  0  0  0  0  0  0  0
    4.8898   -2.4909   -3.3992 O   0  0  0  0  0  0  0  0  0  0  0  0
    2.9513   -2.2679   -2.0438 C   0  0  0  0  0  0  0  0  0  0  0  0
    2.7013   -2.7266   -0.6059 C   0  0  0  0  0  0  0  0  0  0  0  0
    3.9109   -3.5956   -0.2772 C   0  0  2  0  0  0  0  0  0  0  0  0
    4.0777   -4.0106    1.2145 C   0  0  1  0  0  0  0  0  0  0  0  0
    1.8086   -8.4976    7.0650 C   0  0  0  0  0  0  0  0  0  0  0  0
    1.1841   -8.8984    8.4248 C   0  0  0  0  0  0  0  0  0  0  0  0
    3.1002   -9.3321    7.0255 C   0  0  0  0  0  0  0  0  0  0  0  0
    1.5391   -7.1235    0.5381 H   0  0  0  0  0  0  0  0  0  0  0  0
    1.2132   -5.4761    0.0723 H   0  0  0  0  0  0  0  0  0  0  0  0
    0.2066   -6.2544    1.2931 H   0  0  0  0  0  0  0  0  0  0  0  0
    1.7598   -4.6734    2.2892 H   0  0  0  0  0  0  0  0  0  0  0  0
    3.6082   -5.9842    0.4669 H   0  0  0  0  0  0  0  0  0  0  0  0
    5.0782   -7.0799    1.6401 H   0  0  0  0  0  0  0  0  0  0  0  0
    5.1902   -5.9558    2.9442 H   0  0  0  0  0  0  0  0  0  0  0  0
    0.2714   -7.1597    3.4569 H   0  0  0  0  0  0  0  0  0  0  0  0
    1.2747   -8.1399    2.4610 H   0  0  0  0  0  0  0  0  0  0  0  0
    0.8378   -9.6066    4.0159 H   0  0  0  0  0  0  0  0  0  0  0  0
    2.4223   -9.1140    4.4190 H   0  0  0  0  0  0  0  0  0  0  0  0
    0.0313   -9.1995    6.0607 H   0  0  0  0  0  0  0  0  0  0  0  0
    0.1214   -6.4357    5.4750 H   0  0  0  0  0  0  0  0  0  0  0  0
   -0.2741   -7.0631    7.0737 H   0  0  0  0  0  0  0  0  0  0  0  0
    1.8494   -6.4289    7.7072 H   0  0  0  0  0  0  0  0  0  0  0  0
    3.6490   -5.8438    6.5111 H   0  0  0  0  0  0  0  0  0  0  0  0
    3.6627   -7.2064    5.5120 H   0  0  0  0  0  0  0  0  0  0  0  0
    1.6177   -5.1076    4.8240 H   0  0  0  0  0  0  0  0  0  0  0  0
    3.5521   -3.9577    5.5569 H   0  0  0  0  0  0  0  0  0  0  0  0
    4.5983   -4.6776    4.4487 H   0  0  0  0  0  0  0  0  0  0  0  0
    2.1229   -3.0355    3.5952 H   0  0  0  0  0  0  0  0  0  0  0  0
    3.4930   -2.2621    4.2731 H   0  0  0  0  0  0  0  0  0  0  0  0
    3.6234   -1.9593    1.9615 H   0  0  0  0  0  0  0  0  0  0  0  0
    5.7411   -3.9726    2.7569 H   0  0  0  0  0  0  0  0  0  0  0  0
    6.4987   -1.6577    2.0566 H   0  0  0  0  0  0  0  0  0  0  0  0
    7.1454   -2.9812    1.1245 H   0  0  0  0  0  0  0  0  0  0  0  0
    4.9381   -1.0548    0.3093 H   0  0  0  0  0  0  0  0  0  0  0  0
    6.4959   -1.2374   -0.4311 H   0  0  0  0  0  0  0  0  0  0  0  0
    5.7631   -4.4967   -2.1232 H   0  0  0  0  0  0  0  0  0  0  0  0
    6.5161   -4.4325   -0.5443 H   0  0  0  0  0  0  0  0  0  0  0  0
    7.0485   -3.3252   -1.8129 H   0  0  0  0  0  0  0  0  0  0  0  0
    4.6774   -0.9814   -2.0551 H   0  0  0  0  0  0  0  0  0  0  0  0
    5.8333   -2.6236   -3.3620 H   0  0  0  0  0  0  0  0  0  0  0  0
    2.4034   -1.3664   -2.3175 H   0  0  0  0  0  0  0  0  0  0  0  0
    2.6347   -3.0551   -2.7307 H   0  0  0  0  0  0  0  0  0  0  0  0
    2.6595   -1.8498    0.0373 H   0  0  0  0  0  0  0  0  0  0  0  0
    1.7642   -3.2615   -0.5161 H   0  0  0  0  0  0  0  0  0  0  0  0
    3.7782   -4.4837   -0.8926 H   0  0  0  0  0  0  0  0  0  0  0  0
    1.8552   -8.6620    9.2540 H   0  0  0  0  0  0  0  0  0  0  0  0
    0.9870   -9.9724    8.4670 H   0  0  0  0  0  0  0  0  0  0  0  0
    0.2397   -8.4033    8.6369 H   0  0  0  0  0  0  0  0  0  0  0  0
    3.7813   -9.0616    7.8349 H   0  0  0  0  0  0  0  0  0  0  0  0
    3.6726   -9.2205    6.1065 H   0  0  0  0  0  0  0  0  0  0  0  0
    2.8974  -10.4015    7.1156 H   0  0  0  0  0  0  0  0  0  0  0  0
  1  2  1  0
  1 31  1  0
  1 32  1  0
  1 33  1  0
  2  6  1  0
  2  3  1  0
  2 34  1  1
 27  3  1  1
  3  4  1  0
  3 35  1  6
  4  5  1  0
  4 36  1  0
  4 37  1  0
  6  5  1  6
  6 13  1  0
  6  7  1  0
  7  8  1  0
  7 38  1  0
  7 39  1  0
  8  9  1  0
  8 40  1  0
  8 41  1  0
  9 28  1  0
  9 10  1  0
  9 42  1  1
 10 11  1  0
 10 43  1  0
 10 44  1  0
 11 12  1  0
 11 28  1  0
 11 45  1  1
 12 13  1  0
 12 46  1  0
 12 47  1  0
 13 14  1  0
 13 48  1  1
 14 15  1  0
 14 49  1  0
 14 50  1  0
 15 16  1  0
 15 51  1  0
 15 52  1  0
 16 27  1  0
 16 17  1  0
 16 53  1  6
 17 27  1  0
 17 18  1  0
 17 54  1  1
 18 19  1  0
 18 55  1  0
 18 56  1  0
 19 20  1  0
 19 57  1  0
 19 58  1  0
 20 26  1  0
 20 21  1  6
 20 22  1  0
 21 59  1  0
 21 60  1  0
 21 61  1  0
 22 23  1  0
 22 24  1  0
 22 62  1  1
 23 63  1  0
 24 25  1  0
 24 64  1  0
 24 65  1  0
 25 26  1  0
 25 66  1  0
 25 67  1  0
 26 27  1  0
 26 68  1  6
 28 29  1  0
 28 30  1  0
 29 69  1  0
 29 70  1  0
 29 71  1  0
 30 72  1  0
 30 73  1  0
 30 74  1  0
M  END
>  <i_m_ct_stereo_status>  (184) 
1

>  <s_m_source_file>  (184) 
/var/tmp/pbs.5076255.sched01/tmppxy1xzy0/80exjuxwr6.sdf

>  <i_m_source_file_index>  (184) 
9

>  <i_lp_mmshare_version>  (184) 
48012

>  <i_f3d_flags>  (184) 
0

>  <s_epik_input>  (184) 
W09IXVtDQEhdMVtDSDJdW0NIMl1bQ0BIXTJbQ0BdMShbQ0gzXSlbQ0gyXVtDSDJdW0NAQEhdM1tDQEBdMihbQ0BASF0oW0NIMl1PNClbQ0BIXTVbQ0gzXSlbQ0BIXTNbQ0gyXVtDSDJdW0NAQEhdKFtDQF00NTYpW0NIMl1bQ0BIXTdbQ0gyXVtDQEBIXShbQ0gyXVtDSDJdNilDNyhbQ0gzXSlbQ0gzXQ==

>  <s_epik_cmdline>  (184) 
J2VwaWtfcHl0aG9uJywgJy1waHQnLCAnMi4wJywgJy1waCcsICc3LjAnLCAnLXRuJywgJzgnLCAnLW1hJywgJzIwMCcsICctaW1hZScsICc8aW5maWxlLm1hZT4nLCAnLW9tYWUnLCAnPG91dGZpbGUubWFlPic=

>  <r_lp_tautomer_probability>  (184) 
1

>  <r_epik_Ionization_Penalty>  (184) 
3.0925e-06

>  <r_epik_Ionization_Penalty_Charging>  (184) 
0

>  <r_epik_Ionization_Penalty_Neutral>  (184) 
3.0925e-06

>  <r_epik_State_Penalty>  (184) 
-0

>  <r_epik_Charging_Adjusted_Penalty>  (184) 
0

>  <i_epik_Tot_Q>  (184) 
0

>  <i_epik_Tot_abs_Q>  (184) 
0

>  <s_lp_Force_Field>  (184) 
OPLS3e

>  <r_lp_Energy>  (184) 
100.309

>  <b_lp_Chiralities_Consistent>  (184) 
1

>  <s_lp_Variant>  (184) 
63:0-1

>  <s_i_glide_gridfile>  (184) 
pfpi4k_grid

>  <i_i_glide_lignum>  (184) 
9

>  <i_i_glide_rotatable_bonds>  (184) 
1

>  <r_i_docking_score>  (184) 
-1.98503

>  <r_i_glide_ligand_efficiency>  (184) 
-0.0661676

>  <r_i_glide_ligand_efficiency_sa>  (184) 
-0.205598

>  <r_i_glide_ligand_efficiency_ln>  (184) 
-0.45102

>  <r_i_glide_gscore>  (184) 
-1.98503

>  <r_i_glide_lipo>  (184) 
-0.293918

>  <r_i_glide_hbond>  (184) 
0

>  <r_i_glide_metal>  (184) 
-0

>  <r_i_glide_rewards>  (184) 
-0.595583

>  <r_i_glide_evdw>  (184) 
-18.7759

>  <r_i_glide_ecoul>  (184) 
-1.04487

>  <r_i_glide_erotb>  (184) 
0

>  <r_i_glide_esite>  (184) 
0

>  <r_i_glide_emodel>  (184) 
-21.4931

>  <r_i_glide_energy>  (184) 
-19.8208

>  <r_i_glide_einternal>  (184) 
0.862625

>  <r_i_glide_intrahb_reward>  (184) 
-0

>  <i_i_glide_confnum>  (184) 
1

>  <i_i_glide_posenum>  (184) 
22

>  <r_i_glide_eff_state_penalty>  (184) 
0

>  <ligand_id>  (184) 
63

>  <original_smiles>  (184) 
CC1C2COC13CCC1CC(CC3CCC3C4CCC5(C)C(O)CCC5C234)C1(C)C

>  <smiles>  (184) 
[H]OC1([H])C([H])([H])C([H])([H])C2([H])C1(C([H])([H])[H])C([H])([H])C([H])([H])C1([H])C3([H])C([H])([H])C([H])([H])C4([H])C([H])([H])C5([H])C([H])([H])C([H])(C([H])([H])C([H])([H])C46OC([H])([H])C([H])(C6([H])C([H])([H])[H])C312)C5(C([H])([H])[H])C([H])([H])[H]

$$$$
64:0:0
     RDKit          3D

 54 60  0  0  1  0  0  0  0  0999 V2000
    8.1404   -2.7324   -0.7128 C   0  0  0  0  0  0  0  0  0  0  0  0
    7.5725   -2.8385    0.5084 N   0  0  0  0  0  0  0  0  0  0  0  0
    6.2260   -2.8586    0.5511 C   0  0  0  0  0  0  0  0  0  0  0  0
    5.6671   -2.8751    1.8097 O   0  0  0  0  0  0  0  0  0  0  0  0
    5.3833   -4.1769    2.3193 C   0  0  2  0  0  0  0  0  0  0  0  0
    4.4381   -5.0031    1.4373 C   0  0  0  0  0  0  0  0  0  0  0  0
    4.1089   -6.3540    2.0700 C   0  0  0  0  0  0  0  0  0  0  0  0
    3.4214   -6.1965    3.4438 C   0  0  0  0  0  0  0  0  0  0  0  0
    4.3176   -5.3573    4.3712 C   0  0  0  0  0  0  0  0  0  0  0  0
    4.7347   -4.0156    3.7118 C   0  0  0  0  0  0  0  0  0  0  0  0
    2.9679   -7.4616    3.9995 O   0  0  0  0  0  0  0  0  0  0  0  0
    1.5980   -7.1678    3.6135 C   0  0  0  0  0  0  0  0  0  0  0  0
    2.0247   -5.7983    3.3580 O   0  0  0  0  0  0  0  0  0  0  0  0
    0.5332   -7.3735    4.7177 C   0  0  1  0  0  0  0  0  0  0  0  0
   -0.8285   -6.8314    4.2136 C   0  0  0  0  0  0  0  0  0  0  0  0
   -1.2626   -7.5288    2.8977 C   0  0  2  0  0  0  0  0  0  0  0  0
   -1.4039   -9.0347    3.1435 C   0  0  0  0  0  0  0  0  0  0  0  0
   -0.0720   -9.6128    3.6687 C   0  0  2  0  0  0  0  0  0  0  0  0
    0.3436   -8.8920    4.9726 C   0  0  0  0  0  0  0  0  0  0  0  0
    1.0106   -9.4102    2.6214 C   0  0  0  0  0  0  0  0  0  0  0  0
    1.1228   -7.9111    2.3359 C   0  0  1  0  0  0  0  0  0  0  0  0
   -0.2012   -7.3207    1.8324 C   0  0  0  0  0  0  0  0  0  0  0  0
    5.4382   -2.8139   -0.6353 C   0  0  0  0  0  0  0  0  0  0  0  0
    4.1463   -2.8174   -0.9290 N   0  0  0  0  0  0  0  0  0  0  0  0
    4.0853   -2.7598   -2.2758 C   0  0  0  0  0  0  0  0  0  0  0  0
    5.2966   -2.6883   -2.8650 N   0  0  0  0  0  0  0  0  0  0  0  0
    6.1575   -2.7264   -1.8571 C   0  0  0  0  0  0  0  0  0  0  0  0
    7.5195   -2.6628   -1.9079 N   0  0  0  0  0  0  0  0  0  0  0  0
    9.2170   -2.6677   -0.7249 H   0  0  0  0  0  0  0  0  0  0  0  0
    6.3197   -4.7371    2.4060 H   0  0  0  0  0  0  0  0  0  0  0  0
    3.5000   -4.4775    1.2516 H   0  0  0  0  0  0  0  0  0  0  0  0
    4.8577   -5.2496    0.4598 H   0  0  0  0  0  0  0  0  0  0  0  0
    3.5282   -6.8376    1.3006 H   0  0  0  0  0  0  0  0  0  0  0  0
    5.0145   -6.9625    2.1951 H   0  0  0  0  0  0  0  0  0  0  0  0
    3.8924   -5.1796    5.3650 H   0  0  0  0  0  0  0  0  0  0  0  0
    5.2429   -5.9090    4.5573 H   0  0  0  0  0  0  0  0  0  0  0  0
    5.4310   -3.4692    4.3478 H   0  0  0  0  0  0  0  0  0  0  0  0
    3.8457   -3.3937    3.6226 H   0  0  0  0  0  0  0  0  0  0  0  0
    0.7953   -6.8761    5.6569 H   0  0  0  0  0  0  0  0  0  0  0  0
   -1.6187   -6.9673    4.9543 H   0  0  0  0  0  0  0  0  0  0  0  0
   -0.7311   -5.7625    4.0640 H   0  0  0  0  0  0  0  0  0  0  0  0
   -2.2062   -7.1371    2.5302 H   0  0  0  0  0  0  0  0  0  0  0  0
   -2.1847   -9.1630    3.8830 H   0  0  0  0  0  0  0  0  0  0  0  0
   -1.7343   -9.5641    2.2465 H   0  0  0  0  0  0  0  0  0  0  0  0
   -0.1769  -10.6778    3.8432 H   0  0  0  0  0  0  0  0  0  0  0  0
    1.2640   -9.3315    5.3542 H   0  0  0  0  0  0  0  0  0  0  0  0
   -0.4266   -9.0745    5.7256 H   0  0  0  0  0  0  0  0  0  0  0  0
    1.9776   -9.7810    2.9656 H   0  0  0  0  0  0  0  0  0  0  0  0
    0.7984   -9.9343    1.6894 H   0  0  0  0  0  0  0  0  0  0  0  0
    1.7486   -7.8795    1.4770 H   0  0  0  0  0  0  0  0  0  0  0  0
   -0.4658   -7.8154    0.8964 H   0  0  0  0  0  0  0  0  0  0  0  0
   -0.0637   -6.2637    1.6036 H   0  0  0  0  0  0  0  0  0  0  0  0
    3.1488   -2.7675   -2.8198 H   0  0  0  0  0  0  0  0  0  0  0  0
    8.0826   -2.6420   -2.7619 H   0  0  0  0  0  0  0  0  0  0  0  0
  1  2  2  0
  1 29  1  0
  1 28  1  0
  2  3  1  0
  3 23  2  0
  3  4  1  0
  4  5  1  0
  5 10  1  0
  5  6  1  0
  5 30  1  1
  6  7  1  0
  6 31  1  0
  6 32  1  0
  7  8  1  0
  7 33  1  0
  7 34  1  0
  8 13  1  0
  8  9  1  0
  8 11  1  0
  9 10  1  0
  9 35  1  0
  9 36  1  0
 10 37  1  0
 10 38  1  0
 11 12  1  0
 12 21  1  0
 12 13  1  0
 12 14  1  0
 14 19  1  0
 14 15  1  0
 14 39  1  1
 15 16  1  0
 15 40  1  0
 15 41  1  0
 16 22  1  0
 16 17  1  0
 16 42  1  6
 17 18  1  0
 17 43  1  0
 17 44  1  0
 18 19  1  0
 18 20  1  0
 18 45  1  1
 19 46  1  0
 19 47  1  0
 20 21  1  0
 20 48  1  0
 20 49  1  0
 21 22  1  0
 21 50  1  6
 22 51  1  0
 22 52  1  0
 23 24  1  0
 23 27  1  0
 24 25  2  0
 25 26  1  0
 25 53  1  0
 26 27  2  0
 27 28  1  0
 28 54  1  0
M  END
>  <i_m_ct_stereo_status>  (185) 
1

>  <s_m_source_file>  (185) 
/var/tmp/pbs.5076255.sched01/tmppxy1xzy0/80exjuxwr6.sdf

>  <i_m_source_file_index>  (185) 
10

>  <i_lp_mmshare_version>  (185) 
48012

>  <i_f3d_flags>  (185) 
0

>  <s_epik_input>  (185) 
bjFbY0hdW25IXWMoYzEyKW5bY0hdbmMyT1tDSF0oW0NIMl1bQ0gyXTMpW0NIMl1bQ0gyXUMzNE9DNShPNClbQ0BASF02W0NIMl1bQ0BIXTdbQ0gyXVtDQEBIXShbQ0gyXTYpW0NIMl1bQ0BASF01W0NIMl03

>  <s_epik_cmdline>  (185) 
J2VwaWtfcHl0aG9uJywgJy1waHQnLCAnMi4wJywgJy1waCcsICc3LjAnLCAnLXRuJywgJzgnLCAnLW1hJywgJzIwMCcsICctaW1hZScsICc8aW5maWxlLm1hZT4nLCAnLW9tYWUnLCAnPG91dGZpbGUubWFlPic=

>  <r_lp_tautomer_probability>  (185) 
0.00012914

>  <r_epik_Ionization_Penalty>  (185) 
5.07319

>  <r_epik_Ionization_Penalty_Charging>  (185) 
0

>  <r_epik_Ionization_Penalty_Neutral>  (185) 
5.07319

>  <r_epik_State_Penalty>  (185) 
0.000272671

>  <r_epik_Charging_Adjusted_Penalty>  (185) 
0.000272671

>  <i_epik_Tot_Q>  (185) 
0

>  <i_epik_Tot_abs_Q>  (185) 
0

>  <s_lp_Force_Field>  (185) 
OPLS3e

>  <r_lp_Energy>  (185) 
23.2724

>  <b_lp_Chiralities_Consistent>  (185) 
1

>  <s_lp_Variant>  (185) 
64:0-1

>  <s_i_glide_gridfile>  (185) 
pfpi4k_grid

>  <i_i_glide_lignum>  (185) 
10

>  <i_i_glide_rotatable_bonds>  (185) 
2

>  <r_i_docking_score>  (185) 
-4.00413

>  <r_i_glide_ligand_efficiency>  (185) 
-0.143005

>  <r_i_glide_ligand_efficiency_sa>  (185) 
-0.434246

>  <r_i_glide_ligand_efficiency_ln>  (185) 
-0.924271

>  <r_i_glide_gscore>  (185) 
-4.00413

>  <r_i_glide_lipo>  (185) 
-0.215186

>  <r_i_glide_hbond>  (185) 
-0.32

>  <r_i_glide_metal>  (185) 
-0

>  <r_i_glide_rewards>  (185) 
-1.55144

>  <r_i_glide_evdw>  (185) 
-32.465

>  <r_i_glide_ecoul>  (185) 
-2.92743

>  <r_i_glide_erotb>  (185) 
0.265556

>  <r_i_glide_esite>  (185) 
-0.120698

>  <r_i_glide_emodel>  (185) 
-37.9552

>  <r_i_glide_energy>  (185) 
-35.3925

>  <r_i_glide_einternal>  (185) 
8.41613

>  <r_i_glide_intrahb_reward>  (185) 
-0

>  <i_i_glide_confnum>  (185) 
4

>  <i_i_glide_posenum>  (185) 
1

>  <r_i_glide_eff_state_penalty>  (185) 
0

>  <ligand_id>  (185) 
64

>  <original_smiles>  (185) 
c1nc(OC2CCC3(CC2)OC2(O3)C3CC4CC(C3)CC2C4)c2nc[nH]c2n1

>  <smiles>  (185) 
[H]c1nc2c(OC3([H])C([H])([H])C([H])([H])C4(OC5(O4)C4([H])C([H])([H])C6([H])C([H])([H])C([H])(C4([H])[H])C([H])([H])C5([H])C6([H])[H])C([H])([H])C3([H])[H])nc([H])n([H])c-2n1

$$$$
64:0:1
     RDKit          3D

 54 60  0  0  1  0  0  0  0  0999 V2000
    6.0943   -2.7475   -1.0775 C   0  0  0  0  0  0  0  0  0  0  0  0
    5.2106   -2.7323   -0.0450 N   0  0  0  0  0  0  0  0  0  0  0  0
    3.8966   -2.8590   -0.3724 C   0  0  0  0  0  0  0  0  0  0  0  0
    2.9547   -2.9497    0.6428 O   0  0  0  0  0  0  0  0  0  0  0  0
    3.1621   -2.2217    1.8682 C   0  0  2  0  0  0  0  0  0  0  0  0
    2.2964   -2.8832    2.9547 C   0  0  0  0  0  0  0  0  0  0  0  0
    2.2945   -2.0583    4.2782 C   0  0  0  0  0  0  0  0  0  0  0  0
    1.9394   -0.5698    4.0603 C   0  0  0  0  0  0  0  0  0  0  0  0
    2.8586    0.0051    2.9440 C   0  0  0  0  0  0  0  0  0  0  0  0
    2.7216   -0.7773    1.6565 C   0  0  0  0  0  0  0  0  0  0  0  0
    1.9147    0.2270    5.2728 O   0  0  0  0  0  0  0  0  0  0  0  0
    0.6735    0.8468    4.8332 C   0  0  0  0  0  0  0  0  0  0  0  0
    0.5209   -0.3042    3.9543 O   0  0  0  0  0  0  0  0  0  0  0  0
    0.8408    2.2125    4.1229 C   0  0  1  0  0  0  0  0  0  0  0  0
   -0.4874    2.6022    3.4798 C   0  0  0  0  0  0  0  0  0  0  0  0
   -1.5591    2.8038    4.5519 C   0  0  2  0  0  0  0  0  0  0  0  0
   -1.0793    3.8987    5.5332 C   0  0  0  0  0  0  0  0  0  0  0  0
    0.2299    3.4445    6.2200 C   0  0  2  0  0  0  0  0  0  0  0  0
    1.2972    3.2496    5.1451 C   0  0  0  0  0  0  0  0  0  0  0  0
    0.0164    2.1097    6.9655 C   0  0  0  0  0  0  0  0  0  0  0  0
   -0.4154    1.0142    5.9367 C   0  0  1  0  0  0  0  0  0  0  0  0
   -1.7757    1.4766    5.3162 C   0  0  0  0  0  0  0  0  0  0  0  0
    3.4999   -2.9532   -1.7169 C   0  0  0  0  0  0  0  0  0  0  0  0
    2.3141   -3.0448   -2.3164 N   0  0  0  0  0  0  0  0  0  0  0  0
    2.6199   -3.0821   -3.6184 C   0  0  0  0  0  0  0  0  0  0  0  0
    3.9337   -3.0131   -3.9049 N   0  0  0  0  0  0  0  0  0  0  0  0
    4.5115   -2.9334   -2.7163 C   0  0  0  0  0  0  0  0  0  0  0  0
    5.8379   -2.8347   -2.4099 N   0  0  0  0  0  0  0  0  0  0  0  0
    7.1389   -2.6892   -0.7972 H   0  0  0  0  0  0  0  0  0  0  0  0
    4.2055   -2.2120    2.1983 H   0  0  0  0  0  0  0  0  0  0  0  0
    1.2666   -2.9436    2.6162 H   0  0  0  0  0  0  0  0  0  0  0  0
    2.6532   -3.8934    3.1135 H   0  0  0  0  0  0  0  0  0  0  0  0
    1.6841   -2.5691    5.0413 H   0  0  0  0  0  0  0  0  0  0  0  0
    3.3332   -2.1299    4.6697 H   0  0  0  0  0  0  0  0  0  0  0  0
    2.6602    1.0043    2.5728 H   0  0  0  0  0  0  0  0  0  0  0  0
    3.8965   -0.0263    3.3078 H   0  0  0  0  0  0  0  0  0  0  0  0
    3.3074   -0.2781    0.8901 H   0  0  0  0  0  0  0  0  0  0  0  0
    1.6860   -0.7256    1.3047 H   0  0  0  0  0  0  0  0  0  0  0  0
    1.5530    2.3164    3.3370 H   0  0  0  0  0  0  0  0  0  0  0  0
   -0.3302    3.5019    2.9077 H   0  0  0  0  0  0  0  0  0  0  0  0
   -0.7904    1.8338    2.7697 H   0  0  0  0  0  0  0  0  0  0  0  0
   -2.4997    3.1161    4.0706 H   0  0  0  0  0  0  0  0  0  0  0  0
   -0.8833    4.8122    4.9766 H   0  0  0  0  0  0  0  0  0  0  0  0
   -1.8421    4.1177    6.2689 H   0  0  0  0  0  0  0  0  0  0  0  0
    0.5704    4.2151    6.9258 H   0  0  0  0  0  0  0  0  0  0  0  0
    2.2433    2.9393    5.5922 H   0  0  0  0  0  0  0  0  0  0  0  0
    1.4905    4.1742    4.6197 H   0  0  0  0  0  0  0  0  0  0  0  0
    0.9551    1.7909    7.4318 H   0  0  0  0  0  0  0  0  0  0  0  0
   -0.7162    2.2318    7.7625 H   0  0  0  0  0  0  0  0  0  0  0  0
   -0.5928    0.0867    6.4970 H   0  0  0  0  0  0  0  0  0  0  0  0
   -2.5375    1.6142    6.0845 H   0  0  0  0  0  0  0  0  0  0  0  0
   -2.1442    0.7104    4.6239 H   0  0  0  0  0  0  0  0  0  0  0  0
    1.8532   -3.1780   -4.3812 H   0  0  0  0  0  0  0  0  0  0  0  0
    6.6139   -2.8327   -3.0723 H   0  0  0  0  0  0  0  0  0  0  0  0
  1  2  2  0
  1 29  1  0
  1 28  1  0
  2  3  1  0
  3 23  2  0
  3  4  1  0
  4  5  1  0
  5 10  1  0
  5  6  1  0
  5 30  1  1
  6  7  1  0
  6 31  1  0
  6 32  1  0
  7  8  1  0
  7 33  1  0
  7 34  1  0
  8 13  1  0
  8  9  1  0
  8 11  1  0
  9 10  1  0
  9 35  1  0
  9 36  1  0
 10 37  1  0
 10 38  1  0
 11 12  1  0
 12 21  1  0
 12 13  1  0
 12 14  1  0
 14 19  1  0
 14 15  1  0
 14 39  1  6
 15 16  1  0
 15 40  1  0
 15 41  1  0
 16 22  1  0
 16 17  1  0
 16 42  1  6
 17 18  1  0
 17 43  1  0
 17 44  1  0
 18 19  1  0
 18 20  1  0
 18 45  1  1
 19 46  1  0
 19 47  1  0
 20 21  1  0
 20 48  1  0
 20 49  1  0
 21 22  1  0
 21 50  1  1
 22 51  1  0
 22 52  1  0
 23 24  1  0
 23 27  1  0
 24 25  2  0
 25 26  1  0
 25 53  1  0
 26 27  2  0
 27 28  1  0
 28 54  1  0
M  END
>  <i_m_ct_stereo_status>  (186) 
1

>  <s_m_source_file>  (186) 
/var/tmp/pbs.5076255.sched01/tmppxy1xzy0/80exjuxwr6.sdf

>  <i_m_source_file_index>  (186) 
10

>  <i_lp_mmshare_version>  (186) 
48012

>  <i_f3d_flags>  (186) 
0

>  <s_epik_input>  (186) 
bjFbY0hdW25IXWMoYzEyKW5bY0hdbmMyT1tDSF0oW0NIMl1bQ0gyXTMpW0NIMl1bQ0gyXUMzNE9DNShPNClbQ0BASF02W0NIMl1bQ0BIXTdbQ0gyXVtDQEBIXShbQ0gyXTYpW0NIMl1bQ0BASF01W0NIMl03

>  <s_epik_cmdline>  (186) 
J2VwaWtfcHl0aG9uJywgJy1waHQnLCAnMi4wJywgJy1waCcsICc3LjAnLCAnLXRuJywgJzgnLCAnLW1hJywgJzIwMCcsICctaW1hZScsICc8aW5maWxlLm1hZT4nLCAnLW9tYWUnLCAnPG91dGZpbGUubWFlPic=

>  <r_lp_tautomer_probability>  (186) 
0.00012914

>  <r_epik_Ionization_Penalty>  (186) 
5.07319

>  <r_epik_Ionization_Penalty_Charging>  (186) 
0

>  <r_epik_Ionization_Penalty_Neutral>  (186) 
5.07319

>  <r_epik_State_Penalty>  (186) 
0.000272671

>  <r_epik_Charging_Adjusted_Penalty>  (186) 
0.000272671

>  <i_epik_Tot_Q>  (186) 
0

>  <i_epik_Tot_abs_Q>  (186) 
0

>  <s_lp_Force_Field>  (186) 
OPLS3e

>  <r_lp_Energy>  (186) 
23.2724

>  <b_lp_Chiralities_Consistent>  (186) 
1

>  <s_lp_Variant>  (186) 
64:0-1

>  <s_i_glide_gridfile>  (186) 
pfpi4k_grid

>  <i_i_glide_lignum>  (186) 
10

>  <i_i_glide_rotatable_bonds>  (186) 
2

>  <r_i_docking_score>  (186) 
-2.95523

>  <r_i_glide_ligand_efficiency>  (186) 
-0.105544

>  <r_i_glide_ligand_efficiency_sa>  (186) 
-0.320494

>  <r_i_glide_ligand_efficiency_ln>  (186) 
-0.682154

>  <r_i_glide_gscore>  (186) 
-2.95523

>  <r_i_glide_lipo>  (186) 
0

>  <r_i_glide_hbond>  (186) 
-0.115332

>  <r_i_glide_metal>  (186) 
-0

>  <r_i_glide_rewards>  (186) 
-1.23359

>  <r_i_glide_evdw>  (186) 
-32.6219

>  <r_i_glide_ecoul>  (186) 
-1.52934

>  <r_i_glide_erotb>  (186) 
0.265556

>  <r_i_glide_esite>  (186) 
-0.0113731

>  <r_i_glide_emodel>  (186) 
-36.977

>  <r_i_glide_energy>  (186) 
-34.1513

>  <r_i_glide_einternal>  (186) 
1.50839

>  <r_i_glide_intrahb_reward>  (186) 
-0

>  <i_i_glide_confnum>  (186) 
2

>  <i_i_glide_posenum>  (186) 
21

>  <r_i_glide_eff_state_penalty>  (186) 
0

>  <ligand_id>  (186) 
64

>  <original_smiles>  (186) 
c1nc(OC2CCC3(CC2)OC2(O3)C3CC4CC(C3)CC2C4)c2nc[nH]c2n1

>  <smiles>  (186) 
[H]c1nc2c(OC3([H])C([H])([H])C([H])([H])C4(OC5(O4)C4([H])C([H])([H])C6([H])C([H])([H])C([H])(C4([H])[H])C([H])([H])C5([H])C6([H])[H])C([H])([H])C3([H])[H])nc([H])n([H])c-2n1

$$$$
64:0:2
     RDKit          3D

 54 60  0  0  1  0  0  0  0  0999 V2000
   -0.1834    1.4815    2.8969 C   0  0  0  0  0  0  0  0  0  0  0  0
    0.0131    0.3483    3.6190 N   0  0  0  0  0  0  0  0  0  0  0  0
   -0.5883    0.2551    4.8243 C   0  0  0  0  0  0  0  0  0  0  0  0
   -0.4917   -0.8873    5.5990 O   0  0  0  0  0  0  0  0  0  0  0  0
    0.6009   -1.7821    5.4111 C   0  0  2  0  0  0  0  0  0  0  0  0
    0.4124   -2.6033    4.1360 C   0  0  0  0  0  0  0  0  0  0  0  0
    1.5168   -3.6371    3.9500 C   0  0  0  0  0  0  0  0  0  0  0  0
    1.5631   -4.6095    5.1275 C   0  0  0  0  0  0  0  0  0  0  0  0
    1.7331   -3.8560    6.4592 C   0  0  0  0  0  0  0  0  0  0  0  0
    0.6612   -2.7505    6.6242 C   0  0  0  0  0  0  0  0  0  0  0  0
    2.5078   -5.6993    4.9055 O   0  0  0  0  0  0  0  0  0  0  0  0
    1.4149   -6.5909    4.5211 C   0  0  0  0  0  0  0  0  0  0  0  0
    0.4950   -5.6064    5.0942 O   0  0  0  0  0  0  0  0  0  0  0  0
    1.4360   -7.9777    5.2056 C   0  0  1  0  0  0  0  0  0  0  0  0
    0.1186   -8.7228    4.8751 C   0  0  0  0  0  0  0  0  0  0  0  0
   -0.0498   -8.8905    3.3425 C   0  0  2  0  0  0  0  0  0  0  0  0
    1.1365   -9.7007    2.7800 C   0  0  0  0  0  0  0  0  0  0  0  0
    2.4617   -8.9748    3.0935 C   0  0  2  0  0  0  0  0  0  0  0  0
    2.6075   -8.8150    4.6280 C   0  0  0  0  0  0  0  0  0  0  0  0
    2.4530   -7.5827    2.4515 C   0  0  0  0  0  0  0  0  0  0  0  0
    1.2590   -6.7698    2.9986 C   0  0  1  0  0  0  0  0  0  0  0  0
   -0.0662   -7.5069    2.6855 C   0  0  0  0  0  0  0  0  0  0  0  0
   -1.3560    1.3420    5.3303 C   0  0  0  0  0  0  0  0  0  0  0  0
   -2.0083    1.5525    6.4530 N   0  0  0  0  0  0  0  0  0  0  0  0
   -2.4887    2.8070    6.3253 C   0  0  0  0  0  0  0  0  0  0  0  0
   -2.1856    3.3968    5.1478 N   0  0  0  0  0  0  0  0  0  0  0  0
   -1.4667    2.4929    4.5033 C   0  0  0  0  0  0  0  0  0  0  0  0
   -0.8882    2.5805    3.2593 N   0  0  0  0  0  0  0  0  0  0  0  0
    0.2662    1.5104    1.9138 H   0  0  0  0  0  0  0  0  0  0  0  0
    1.5389   -1.2184    5.3609 H   0  0  0  0  0  0  0  0  0  0  0  0
   -0.5688   -3.0711    4.1558 H   0  0  0  0  0  0  0  0  0  0  0  0
    0.4421   -2.0180    3.2208 H   0  0  0  0  0  0  0  0  0  0  0  0
    1.2974   -4.0618    2.9931 H   0  0  0  0  0  0  0  0  0  0  0  0
    2.4811   -3.1209    3.8655 H   0  0  0  0  0  0  0  0  0  0  0  0
    1.7461   -4.5137    7.3341 H   0  0  0  0  0  0  0  0  0  0  0  0
    2.7004   -3.3554    6.4611 H   0  0  0  0  0  0  0  0  0  0  0  0
    0.8409   -2.1719    7.5393 H   0  0  0  0  0  0  0  0  0  0  0  0
   -0.3103   -3.2298    6.7596 H   0  0  0  0  0  0  0  0  0  0  0  0
    1.5499   -7.9036    6.2912 H   0  0  0  0  0  0  0  0  0  0  0  0
    0.1020   -9.7154    5.3404 H   0  0  0  0  0  0  0  0  0  0  0  0
   -0.7365   -8.1816    5.2789 H   0  0  0  0  0  0  0  0  0  0  0  0
   -0.9840   -9.4015    3.1164 H   0  0  0  0  0  0  0  0  0  0  0  0
    1.1465  -10.6963    3.2255 H   0  0  0  0  0  0  0  0  0  0  0  0
    1.0266   -9.8467    1.7044 H   0  0  0  0  0  0  0  0  0  0  0  0
    3.2947   -9.5428    2.6858 H   0  0  0  0  0  0  0  0  0  0  0  0
    3.5644   -8.3448    4.8552 H   0  0  0  0  0  0  0  0  0  0  0  0
    2.6376   -9.8119    5.0829 H   0  0  0  0  0  0  0  0  0  0  0  0
    3.3731   -7.0477    2.6849 H   0  0  0  0  0  0  0  0  0  0  0  0
    2.3914   -7.6356    1.3631 H   0  0  0  0  0  0  0  0  0  0  0  0
    1.2385   -5.8822    2.4219 H   0  0  0  0  0  0  0  0  0  0  0  0
   -0.1879   -7.5836    1.6041 H   0  0  0  0  0  0  0  0  0  0  0  0
   -0.9018   -6.9176    3.0578 H   0  0  0  0  0  0  0  0  0  0  0  0
   -3.0778    3.2909    7.0824 H   0  0  0  0  0  0  0  0  0  0  0  0
   -0.9185    3.3724    2.6263 H   0  0  0  0  0  0  0  0  0  0  0  0
  1  2  2  0
  1 29  1  0
  1 28  1  0
  2  3  1  0
  3 23  2  0
  3  4  1  0
  4  5  1  0
  5 10  1  0
  5  6  1  0
  5 30  1  6
  6  7  1  0
  6 31  1  0
  6 32  1  0
  7  8  1  0
  7 33  1  0
  7 34  1  0
  8 13  1  0
  8  9  1  0
  8 11  1  0
  9 10  1  0
  9 35  1  0
  9 36  1  0
 10 37  1  0
 10 38  1  0
 11 12  1  0
 12 21  1  0
 12 13  1  0
 12 14  1  0
 14 19  1  0
 14 15  1  0
 14 39  1  1
 15 16  1  0
 15 40  1  0
 15 41  1  0
 16 22  1  0
 16 17  1  0
 16 42  1  1
 17 18  1  0
 17 43  1  0
 17 44  1  0
 18 19  1  0
 18 20  1  0
 18 45  1  6
 19 46  1  0
 19 47  1  0
 20 21  1  0
 20 48  1  0
 20 49  1  0
 21 22  1  0
 21 50  1  6
 22 51  1  0
 22 52  1  0
 23 24  1  0
 23 27  1  0
 24 25  2  0
 25 26  1  0
 25 53  1  0
 26 27  2  0
 27 28  1  0
 28 54  1  0
M  END
>  <i_m_ct_stereo_status>  (187) 
1

>  <s_m_source_file>  (187) 
/var/tmp/pbs.5076255.sched01/tmppxy1xzy0/80exjuxwr6.sdf

>  <i_m_source_file_index>  (187) 
10

>  <i_lp_mmshare_version>  (187) 
48012

>  <i_f3d_flags>  (187) 
0

>  <s_epik_input>  (187) 
bjFbY0hdW25IXWMoYzEyKW5bY0hdbmMyT1tDSF0oW0NIMl1bQ0gyXTMpW0NIMl1bQ0gyXUMzNE9DNShPNClbQ0BASF02W0NIMl1bQ0BIXTdbQ0gyXVtDQEBIXShbQ0gyXTYpW0NIMl1bQ0BASF01W0NIMl03

>  <s_epik_cmdline>  (187) 
J2VwaWtfcHl0aG9uJywgJy1waHQnLCAnMi4wJywgJy1waCcsICc3LjAnLCAnLXRuJywgJzgnLCAnLW1hJywgJzIwMCcsICctaW1hZScsICc8aW5maWxlLm1hZT4nLCAnLW9tYWUnLCAnPG91dGZpbGUubWFlPic=

>  <r_lp_tautomer_probability>  (187) 
0.00012914

>  <r_epik_Ionization_Penalty>  (187) 
5.07319

>  <r_epik_Ionization_Penalty_Charging>  (187) 
0

>  <r_epik_Ionization_Penalty_Neutral>  (187) 
5.07319

>  <r_epik_State_Penalty>  (187) 
0.000272671

>  <r_epik_Charging_Adjusted_Penalty>  (187) 
0.000272671

>  <i_epik_Tot_Q>  (187) 
0

>  <i_epik_Tot_abs_Q>  (187) 
0

>  <s_lp_Force_Field>  (187) 
OPLS3e

>  <r_lp_Energy>  (187) 
23.2724

>  <b_lp_Chiralities_Consistent>  (187) 
1

>  <s_lp_Variant>  (187) 
64:0-1

>  <s_i_glide_gridfile>  (187) 
pfpi4k_grid

>  <i_i_glide_lignum>  (187) 
10

>  <i_i_glide_rotatable_bonds>  (187) 
2

>  <r_i_docking_score>  (187) 
-2.91473

>  <r_i_glide_ligand_efficiency>  (187) 
-0.104097

>  <r_i_glide_ligand_efficiency_sa>  (187) 
-0.316101

>  <r_i_glide_ligand_efficiency_ln>  (187) 
-0.672805

>  <r_i_glide_gscore>  (187) 
-2.91473

>  <r_i_glide_lipo>  (187) 
-0.144233

>  <r_i_glide_hbond>  (187) 
-0.0389344

>  <r_i_glide_metal>  (187) 
-0

>  <r_i_glide_rewards>  (187) 
-0.992322

>  <r_i_glide_evdw>  (187) 
-28.5306

>  <r_i_glide_ecoul>  (187) 
-2.96615

>  <r_i_glide_erotb>  (187) 
0.265556

>  <r_i_glide_esite>  (187) 
-0.133341

>  <r_i_glide_emodel>  (187) 
-35.7288

>  <r_i_glide_energy>  (187) 
-31.4968

>  <r_i_glide_einternal>  (187) 
0.890913

>  <r_i_glide_intrahb_reward>  (187) 
-0

>  <i_i_glide_confnum>  (187) 
5

>  <i_i_glide_posenum>  (187) 
24

>  <r_i_glide_eff_state_penalty>  (187) 
0

>  <ligand_id>  (187) 
64

>  <original_smiles>  (187) 
c1nc(OC2CCC3(CC2)OC2(O3)C3CC4CC(C3)CC2C4)c2nc[nH]c2n1

>  <smiles>  (187) 
[H]c1nc2c(OC3([H])C([H])([H])C([H])([H])C4(OC5(O4)C4([H])C([H])([H])C6([H])C([H])([H])C([H])(C4([H])[H])C([H])([H])C5([H])C6([H])[H])C([H])([H])C3([H])[H])nc([H])n([H])c-2n1

$$$$
65:0:0
     RDKit          3D

 42 46  0  0  1  0  0  0  0  0999 V2000
    4.0325   -5.3422    4.1510 C   0  0  0  0  0  0  0  0  0  0  0  0
    3.9577   -4.6337    2.8799 N   0  0  0  0  0  0  0  0  0  0  0  0
    3.8047   -5.1973    1.6610 C   0  0  0  0  0  0  0  0  0  0  0  0
    3.6580   -6.3981    1.4188 O   0  0  0  0  0  0  0  0  0  0  0  0
    3.8090   -4.1275    0.5576 C   0  0  2  0  0  0  0  0  0  0  0  0
    2.6268   -4.1137   -0.2967 N   0  0  0  0  0  0  0  0  0  0  0  0
    3.0033   -3.5074   -1.4650 C   0  0  0  0  0  0  0  0  0  0  0  0
    2.2033   -2.9202   -2.3388 C   0  0  0  0  0  0  0  0  0  0  0  0
    2.7085   -2.1256   -3.5010 C   0  0  0  0  0  0  0  0  0  0  0  0
    4.1639   -2.4528   -3.8630 C   0  0  0  0  0  0  0  0  0  0  0  0
    5.0180   -3.0821   -2.7436 C   0  0  0  0  0  0  0  0  0  0  0  0
    6.2186   -3.0802   -3.0643 O   0  0  0  0  0  0  0  0  0  0  0  0
    4.4128   -3.5819   -1.6126 C   0  0  0  0  0  0  0  0  0  0  0  0
    4.9986   -4.3015   -0.4304 C   0  0  1  0  0  0  0  0  0  0  0  0
    6.3536   -3.8662    0.0385 C   0  0  0  0  0  0  0  0  0  0  0  0
    7.4125   -4.5651    0.5441 C   0  0  0  0  0  0  0  0  0  0  0  0
    8.4319   -3.6060    0.8070 C   0  0  0  0  0  0  0  0  0  0  0  0
    7.9093   -2.3975    0.4530 C   0  0  0  0  0  0  0  0  0  0  0  0
    6.6368   -2.5350   -0.0066 O   0  0  0  0  0  0  0  0  0  0  0  0
    3.9003   -2.8853    1.4278 C   0  0  0  0  0  0  0  0  0  0  0  0
    3.8542   -1.5386    1.0194 C   0  0  0  0  0  0  0  0  0  0  0  0
    3.9621   -0.5500    2.0190 C   0  0  0  0  0  0  0  0  0  0  0  0
    4.0971   -0.9105    3.3775 C   0  0  0  0  0  0  0  0  0  0  0  0
    4.1134   -2.2624    3.7774 C   0  0  0  0  0  0  0  0  0  0  0  0
    4.0054   -3.2380    2.7650 C   0  0  0  0  0  0  0  0  0  0  0  0
    3.8034   -6.4023    4.0396 H   0  0  0  0  0  0  0  0  0  0  0  0
    3.3260   -4.9230    4.8689 H   0  0  0  0  0  0  0  0  0  0  0  0
    5.0424   -5.2587    4.5526 H   0  0  0  0  0  0  0  0  0  0  0  0
    2.6324   -1.0802   -3.2124 H   0  0  0  0  0  0  0  0  0  0  0  0
    2.0295   -2.2937   -4.3301 H   0  0  0  0  0  0  0  0  0  0  0  0
    4.1113   -3.1432   -4.7030 H   0  0  0  0  0  0  0  0  0  0  0  0
    4.6285   -1.5303   -4.2036 H   0  0  0  0  0  0  0  0  0  0  0  0
    1.1431   -2.8897   -2.1588 H   0  0  0  0  0  0  0  0  0  0  0  0
    5.0627   -5.3439   -0.7479 H   0  0  0  0  0  0  0  0  0  0  0  0
    7.4279   -5.6310    0.7222 H   0  0  0  0  0  0  0  0  0  0  0  0
    9.4130   -3.7557    1.2439 H   0  0  0  0  0  0  0  0  0  0  0  0
    8.2720   -1.3789    0.4923 H   0  0  0  0  0  0  0  0  0  0  0  0
    3.7374   -1.2865   -0.0287 H   0  0  0  0  0  0  0  0  0  0  0  0
    3.9332    0.4840    1.7299 H   0  0  0  0  0  0  0  0  0  0  0  0
    4.1851   -0.1318    4.1133 H   0  0  0  0  0  0  0  0  0  0  0  0
    4.2067   -2.5463    4.8136 H   0  0  0  0  0  0  0  0  0  0  0  0
    2.4208   -5.0721   -0.5333 H   0  0  0  0  0  0  0  0  0  0  0  0
  1  2  1  0
  1 26  1  0
  1 27  1  0
  1 28  1  0
  2 25  1  0
  2  3  1  0
  3  4  2  0
  3  5  1  0
  5 14  1  0
  5 20  1  0
  5  6  1  6
  6  7  1  0
  6 42  1  0
  7  8  2  0
  7 13  1  0
  8  9  1  0
  8 33  1  0
  9 10  1  0
  9 29  1  0
  9 30  1  0
 10 11  1  0
 10 31  1  0
 10 32  1  0
 11 12  1  0
 11 13  2  0
 13 14  1  0
 14 15  1  0
 14 34  1  6
 15 19  1  0
 15 16  2  0
 16 17  1  0
 16 35  1  0
 17 18  2  0
 17 36  1  0
 18 19  1  0
 18 37  1  0
 20 25  2  0
 20 21  1  0
 21 22  2  0
 21 38  1  0
 22 23  1  0
 22 39  1  0
 23 24  2  0
 23 40  1  0
 24 25  1  0
 24 41  1  0
M  CHG  1  12  -1
M  END
>  <i_m_ct_stereo_status>  (188) 
1

>  <s_m_source_file>  (188) 
/var/tmp/pbs.5076255.sched01/tmppxy1xzy0/80exjuxwr6.sdf

>  <i_m_source_file_index>  (188) 
11

>  <i_lp_mmshare_version>  (188) 
48012

>  <i_f3d_flags>  (188) 
0

>  <s_epik_input>  (188) 
W2NIXTFbY0hdW2NIXVtjSF1jKE4oW0NIM10pQzI9TyljMVtDQF0yM1tOSF1DPTRbQ0BIXShDKD1PKVtDSDJdW0NIMl1bQ0hdNClbQ0BIXTNjNVtjSF1bY0hdW2NIXW81

>  <s_epik_cmdline>  (188) 
J2VwaWtfcHl0aG9uJywgJy1waHQnLCAnMi4wJywgJy1waCcsICc3LjAnLCAnLXRuJywgJzgnLCAnLW1hJywgJzIwMCcsICctaW1hZScsICc8aW5maWxlLm1hZT4nLCAnLW9tYWUnLCAnPG91dGZpbGUubWFlPic=

>  <r_epik_Ionization_Penalty>  (188) 
0.8681

>  <r_epik_Ionization_Penalty_Charging>  (188) 
0.867076

>  <r_epik_Ionization_Penalty_Neutral>  (188) 
0.0010235

>  <r_epik_State_Penalty>  (188) 
0.0277249

>  <r_epik_Charging_Adjusted_Penalty>  (188) 
0.894801

>  <i_epik_Tot_Q>  (188) 
-1

>  <i_epik_Tot_abs_Q>  (188) 
1

>  <s_epik_Chemistry_Notes>  (188) 
This compound has an imine and may undergo hydrolysis.

>  <s_lp_Force_Field>  (188) 
OPLS3e

>  <r_lp_Energy>  (188) 
27.0773

>  <b_lp_Chiralities_Consistent>  (188) 
1

>  <s_lp_Variant>  (188) 
65:0-1

>  <s_i_glide_gridfile>  (188) 
pfpi4k_grid

>  <i_i_glide_lignum>  (188) 
11

>  <i_i_glide_rotatable_bonds>  (188) 
1

>  <r_i_docking_score>  (188) 
-3.0211

>  <r_i_glide_ligand_efficiency>  (188) 
-0.120844

>  <r_i_glide_ligand_efficiency_sa>  (188) 
-0.353349

>  <r_i_glide_ligand_efficiency_ln>  (188) 
-0.71609

>  <r_i_glide_gscore>  (188) 
-3.0211

>  <r_i_glide_lipo>  (188) 
-1.21282

>  <r_i_glide_hbond>  (188) 
-0.0274438

>  <r_i_glide_metal>  (188) 
-0

>  <r_i_glide_rewards>  (188) 
-1.15319

>  <r_i_glide_evdw>  (188) 
-23.837

>  <r_i_glide_ecoul>  (188) 
2.94126

>  <r_i_glide_erotb>  (188) 
0.169591

>  <r_i_glide_esite>  (188) 
-0.0465704

>  <r_i_glide_emodel>  (188) 
-24.7685

>  <r_i_glide_energy>  (188) 
-20.8958

>  <r_i_glide_einternal>  (188) 
0.108279

>  <r_i_glide_intrahb_reward>  (188) 
-0

>  <i_i_glide_confnum>  (188) 
2

>  <i_i_glide_posenum>  (188) 
12

>  <r_i_glide_eff_state_penalty>  (188) 
0

>  <ligand_id>  (188) 
65

>  <original_smiles>  (188) 
CN1C(=O)C2(NC3=CCCC(=O)C3C2c2ccco2)c2ccccc21

>  <smiles>  (188) 
[H]C1=C2C(=C([O-])C([H])([H])C1([H])[H])C([H])(c1oc([H])c([H])c1[H])C1(C(=O)N(C([H])([H])[H])c3c([H])c([H])c([H])c([H])c31)N2[H]

$$$$
65:0:1
     RDKit          3D

 42 46  0  0  1  0  0  0  0  0999 V2000
    5.4382   -4.8369    4.7083 C   0  0  0  0  0  0  0  0  0  0  0  0
    5.0579   -4.2925    3.4117 N   0  0  0  0  0  0  0  0  0  0  0  0
    4.8434   -5.0092    2.2817 C   0  0  0  0  0  0  0  0  0  0  0  0
    4.8873   -6.2305    2.1687 O   0  0  0  0  0  0  0  0  0  0  0  0
    4.4958   -4.0828    1.1035 C   0  0  2  0  0  0  0  0  0  0  0  0
    3.2087   -4.3599    0.4657 N   0  0  0  0  0  0  0  0  0  0  0  0
    3.2876   -3.8530   -0.8020 C   0  0  0  0  0  0  0  0  0  0  0  0
    2.2671   -3.4513   -1.5602 C   0  0  0  0  0  0  0  0  0  0  0  0
    2.4765   -2.7390   -2.8722 C   0  0  0  0  0  0  0  0  0  0  0  0
    3.9019   -2.8740   -3.4385 C   0  0  0  0  0  0  0  0  0  0  0  0
    4.9996   -3.2475   -2.4265 C   0  0  0  0  0  0  0  0  0  0  0  0
    6.1272   -3.0525   -2.9390 O   0  0  0  0  0  0  0  0  0  0  0  0
    4.6624   -3.7165   -1.1838 C   0  0  0  0  0  0  0  0  0  0  0  0
    5.5422   -4.1694   -0.0496 C   0  0  1  0  0  0  0  0  0  0  0  0
    6.8584   -3.4661    0.1276 C   0  0  0  0  0  0  0  0  0  0  0  0
    8.1431   -3.9289    0.2423 C   0  0  0  0  0  0  0  0  0  0  0  0
    8.9650   -2.7799    0.4500 C   0  0  0  0  0  0  0  0  0  0  0  0
    8.1161   -1.7107    0.4529 C   0  0  0  0  0  0  0  0  0  0  0  0
    6.8388   -2.1137    0.2223 O   0  0  0  0  0  0  0  0  0  0  0  0
    4.4760   -2.7530    1.8419 C   0  0  0  0  0  0  0  0  0  0  0  0
    4.1378   -1.4857    1.3343 C   0  0  0  0  0  0  0  0  0  0  0  0
    4.2178   -0.3861    2.2110 C   0  0  0  0  0  0  0  0  0  0  0  0
    4.6150   -0.5618    3.5568 C   0  0  0  0  0  0  0  0  0  0  0  0
    4.9194   -1.8398    4.0611 C   0  0  0  0  0  0  0  0  0  0  0  0
    4.8340   -2.9297    3.1741 C   0  0  0  0  0  0  0  0  0  0  0  0
    5.3865   -5.9211    4.7260 H   0  0  0  0  0  0  0  0  0  0  0  0
    4.7793   -4.4562    5.4921 H   0  0  0  0  0  0  0  0  0  0  0  0
    6.4677   -4.5594    4.9377 H   0  0  0  0  0  0  0  0  0  0  0  0
    2.2528   -1.6935   -2.6774 H   0  0  0  0  0  0  0  0  0  0  0  0
    1.7438   -3.1028   -3.5831 H   0  0  0  0  0  0  0  0  0  0  0  0
    3.8573   -3.6401   -4.2100 H   0  0  0  0  0  0  0  0  0  0  0  0
    4.1578   -1.9328   -3.9197 H   0  0  0  0  0  0  0  0  0  0  0  0
    1.2588   -3.5302   -1.2103 H   0  0  0  0  0  0  0  0  0  0  0  0
    5.7454   -5.2118   -0.2739 H   0  0  0  0  0  0  0  0  0  0  0  0
    8.4300   -4.9738    0.2066 H   0  0  0  0  0  0  0  0  0  0  0  0
   10.0443   -2.6972    0.5807 H   0  0  0  0  0  0  0  0  0  0  0  0
    8.2367   -0.6524    0.6021 H   0  0  0  0  0  0  0  0  0  0  0  0
    3.8408   -1.3711    0.2912 H   0  0  0  0  0  0  0  0  0  0  0  0
    3.9752    0.5872    1.8348 H   0  0  0  0  0  0  0  0  0  0  0  0
    4.6811    0.2979    4.1937 H   0  0  0  0  0  0  0  0  0  0  0  0
    5.2187   -1.9883    5.0906 H   0  0  0  0  0  0  0  0  0  0  0  0
    3.1211   -5.3564    0.3868 H   0  0  0  0  0  0  0  0  0  0  0  0
  1  2  1  0
  1 26  1  0
  1 27  1  0
  1 28  1  0
  2 25  1  0
  2  3  1  0
  3  4  2  0
  3  5  1  0
  5 14  1  0
  5 20  1  0
  5  6  1  6
  6  7  1  0
  6 42  1  0
  7  8  2  0
  7 13  1  0
  8  9  1  0
  8 33  1  0
  9 10  1  0
  9 29  1  0
  9 30  1  0
 10 11  1  0
 10 31  1  0
 10 32  1  0
 11 12  1  0
 11 13  2  0
 13 14  1  0
 14 15  1  0
 14 34  1  6
 15 19  1  0
 15 16  2  0
 16 17  1  0
 16 35  1  0
 17 18  2  0
 17 36  1  0
 18 19  1  0
 18 37  1  0
 20 25  2  0
 20 21  1  0
 21 22  2  0
 21 38  1  0
 22 23  1  0
 22 39  1  0
 23 24  2  0
 23 40  1  0
 24 25  1  0
 24 41  1  0
M  CHG  1  12  -1
M  END
>  <i_m_ct_stereo_status>  (189) 
1

>  <s_m_source_file>  (189) 
/var/tmp/pbs.5076255.sched01/tmppxy1xzy0/80exjuxwr6.sdf

>  <i_m_source_file_index>  (189) 
11

>  <i_lp_mmshare_version>  (189) 
48012

>  <i_f3d_flags>  (189) 
0

>  <s_epik_input>  (189) 
W2NIXTFbY0hdW2NIXVtjSF1jKE4oW0NIM10pQzI9TyljMVtDQF0yM1tOSF1DPTRbQ0BIXShDKD1PKVtDSDJdW0NIMl1bQ0hdNClbQ0BIXTNjNVtjSF1bY0hdW2NIXW81

>  <s_epik_cmdline>  (189) 
J2VwaWtfcHl0aG9uJywgJy1waHQnLCAnMi4wJywgJy1waCcsICc3LjAnLCAnLXRuJywgJzgnLCAnLW1hJywgJzIwMCcsICctaW1hZScsICc8aW5maWxlLm1hZT4nLCAnLW9tYWUnLCAnPG91dGZpbGUubWFlPic=

>  <r_epik_Ionization_Penalty>  (189) 
0.8681

>  <r_epik_Ionization_Penalty_Charging>  (189) 
0.867076

>  <r_epik_Ionization_Penalty_Neutral>  (189) 
0.0010235

>  <r_epik_State_Penalty>  (189) 
0.0277249

>  <r_epik_Charging_Adjusted_Penalty>  (189) 
0.894801

>  <i_epik_Tot_Q>  (189) 
-1

>  <i_epik_Tot_abs_Q>  (189) 
1

>  <s_epik_Chemistry_Notes>  (189) 
This compound has an imine and may undergo hydrolysis.

>  <s_lp_Force_Field>  (189) 
OPLS3e

>  <r_lp_Energy>  (189) 
27.0773

>  <b_lp_Chiralities_Consistent>  (189) 
1

>  <s_lp_Variant>  (189) 
65:0-1

>  <s_i_glide_gridfile>  (189) 
pfpi4k_grid

>  <i_i_glide_lignum>  (189) 
11

>  <i_i_glide_rotatable_bonds>  (189) 
1

>  <r_i_docking_score>  (189) 
-2.93339

>  <r_i_glide_ligand_efficiency>  (189) 
-0.117336

>  <r_i_glide_ligand_efficiency_sa>  (189) 
-0.343091

>  <r_i_glide_ligand_efficiency_ln>  (189) 
-0.695301

>  <r_i_glide_gscore>  (189) 
-2.93339

>  <r_i_glide_lipo>  (189) 
-1.11512

>  <r_i_glide_hbond>  (189) 
0

>  <r_i_glide_metal>  (189) 
-0

>  <r_i_glide_rewards>  (189) 
-1.16802

>  <r_i_glide_evdw>  (189) 
-25.0393

>  <r_i_glide_ecoul>  (189) 
2.94695

>  <r_i_glide_erotb>  (189) 
0.169591

>  <r_i_glide_esite>  (189) 
-0.00991222

>  <r_i_glide_emodel>  (189) 
-25.7735

>  <r_i_glide_energy>  (189) 
-22.0923

>  <r_i_glide_einternal>  (189) 
0.400661

>  <r_i_glide_intrahb_reward>  (189) 
-0

>  <i_i_glide_confnum>  (189) 
6

>  <i_i_glide_posenum>  (189) 
19

>  <r_i_glide_eff_state_penalty>  (189) 
0

>  <ligand_id>  (189) 
65

>  <original_smiles>  (189) 
CN1C(=O)C2(NC3=CCCC(=O)C3C2c2ccco2)c2ccccc21

>  <smiles>  (189) 
[H]C1=C2C(=C([O-])C([H])([H])C1([H])[H])C([H])(c1oc([H])c([H])c1[H])C1(C(=O)N(C([H])([H])[H])c3c([H])c([H])c([H])c([H])c31)N2[H]

$$$$
65:0:2
     RDKit          3D

 42 46  0  0  1  0  0  0  0  0999 V2000
    3.3338   -5.8721    3.7754 C   0  0  0  0  0  0  0  0  0  0  0  0
    3.3976   -5.0390    2.5848 N   0  0  0  0  0  0  0  0  0  0  0  0
    3.3010   -5.4686    1.3135 C   0  0  0  0  0  0  0  0  0  0  0  0
    3.0926   -6.6311    0.9474 O   0  0  0  0  0  0  0  0  0  0  0  0
    3.4563   -4.3049    0.3208 C   0  0  2  0  0  0  0  0  0  0  0  0
    2.3557   -4.1397   -0.6095 N   0  0  0  0  0  0  0  0  0  0  0  0
    2.8708   -3.4480   -1.6696 C   0  0  0  0  0  0  0  0  0  0  0  0
    2.1755   -2.7108   -2.5247 C   0  0  0  0  0  0  0  0  0  0  0  0
    2.8071   -1.8167   -3.5462 C   0  0  0  0  0  0  0  0  0  0  0  0
    4.2647   -2.2116   -3.8358 C   0  0  0  0  0  0  0  0  0  0  0  0
    4.9933   -3.0113   -2.7448 C   0  0  0  0  0  0  0  0  0  0  0  0
    6.2047   -3.0659   -3.0331 O   0  0  0  0  0  0  0  0  0  0  0  0
    4.2843   -3.5658   -1.7052 C   0  0  0  0  0  0  0  0  0  0  0  0
    4.7184   -4.4575   -0.5729 C   0  0  1  0  0  0  0  0  0  0  0  0
    6.0334   -4.1735    0.0733 C   0  0  0  0  0  0  0  0  0  0  0  0
    6.9602   -3.1791   -0.0271 C   0  0  0  0  0  0  0  0  0  0  0  0
    8.0231   -3.5347    0.8458 C   0  0  0  0  0  0  0  0  0  0  0  0
    7.6515   -4.7105    1.4306 C   0  0  0  0  0  0  0  0  0  0  0  0
    6.4467   -5.1164    0.9644 O   0  0  0  0  0  0  0  0  0  0  0  0
    3.5637   -3.1582    1.3180 C   0  0  0  0  0  0  0  0  0  0  0  0
    3.6502   -1.7744    1.0507 C   0  0  0  0  0  0  0  0  0  0  0  0
    3.7443   -0.8950    2.1515 C   0  0  0  0  0  0  0  0  0  0  0  0
    3.7473   -1.3947    3.4741 C   0  0  0  0  0  0  0  0  0  0  0  0
    3.6429   -2.7830    3.7237 C   0  0  0  0  0  0  0  0  0  0  0  0
    3.5450   -3.6410    2.6153 C   0  0  0  0  0  0  0  0  0  0  0  0
    3.0461   -6.8949    3.5339 H   0  0  0  0  0  0  0  0  0  0  0  0
    2.6028   -5.4758    4.4814 H   0  0  0  0  0  0  0  0  0  0  0  0
    4.3147   -5.9020    4.2501 H   0  0  0  0  0  0  0  0  0  0  0  0
    2.7446   -0.7887   -3.1881 H   0  0  0  0  0  0  0  0  0  0  0  0
    2.1953   -1.8757   -4.4385 H   0  0  0  0  0  0  0  0  0  0  0  0
    4.2266   -2.8509   -4.7114 H   0  0  0  0  0  0  0  0  0  0  0  0
    4.8172   -1.3040   -4.0866 H   0  0  0  0  0  0  0  0  0  0  0  0
    1.1108   -2.6713   -2.3995 H   0  0  0  0  0  0  0  0  0  0  0  0
    4.7484   -5.4604   -0.9955 H   0  0  0  0  0  0  0  0  0  0  0  0
    6.8796   -2.3170   -0.6730 H   0  0  0  0  0  0  0  0  0  0  0  0
    8.9338   -2.9909    1.0411 H   0  0  0  0  0  0  0  0  0  0  0  0
    8.0956   -5.3458    2.1890 H   0  0  0  0  0  0  0  0  0  0  0  0
    3.6337   -1.3973    0.0328 H   0  0  0  0  0  0  0  0  0  0  0  0
    3.8076    0.1667    1.9766 H   0  0  0  0  0  0  0  0  0  0  0  0
    3.8278   -0.7059    4.2960 H   0  0  0  0  0  0  0  0  0  0  0  0
    3.6403   -3.1687    4.7338 H   0  0  0  0  0  0  0  0  0  0  0  0
    2.1558   -5.0607   -0.9687 H   0  0  0  0  0  0  0  0  0  0  0  0
  1  2  1  0
  1 26  1  0
  1 27  1  0
  1 28  1  0
  2 25  1  0
  2  3  1  0
  3  4  2  0
  3  5  1  0
  5 14  1  0
  5 20  1  0
  5  6  1  6
  6  7  1  0
  6 42  1  0
  7  8  2  0
  7 13  1  0
  8  9  1  0
  8 33  1  0
  9 10  1  0
  9 29  1  0
  9 30  1  0
 10 11  1  0
 10 31  1  0
 10 32  1  0
 11 12  1  0
 11 13  2  0
 13 14  1  0
 14 15  1  0
 14 34  1  6
 15 19  1  0
 15 16  2  0
 16 17  1  0
 16 35  1  0
 17 18  2  0
 17 36  1  0
 18 19  1  0
 18 37  1  0
 20 25  2  0
 20 21  1  0
 21 22  2  0
 21 38  1  0
 22 23  1  0
 22 39  1  0
 23 24  2  0
 23 40  1  0
 24 25  1  0
 24 41  1  0
M  CHG  1  12  -1
M  END
>  <i_m_ct_stereo_status>  (190) 
1

>  <s_m_source_file>  (190) 
/var/tmp/pbs.5076255.sched01/tmppxy1xzy0/80exjuxwr6.sdf

>  <i_m_source_file_index>  (190) 
11

>  <i_lp_mmshare_version>  (190) 
48012

>  <i_f3d_flags>  (190) 
0

>  <s_epik_input>  (190) 
W2NIXTFbY0hdW2NIXVtjSF1jKE4oW0NIM10pQzI9TyljMVtDQF0yM1tOSF1DPTRbQ0BIXShDKD1PKVtDSDJdW0NIMl1bQ0hdNClbQ0BIXTNjNVtjSF1bY0hdW2NIXW81

>  <s_epik_cmdline>  (190) 
J2VwaWtfcHl0aG9uJywgJy1waHQnLCAnMi4wJywgJy1waCcsICc3LjAnLCAnLXRuJywgJzgnLCAnLW1hJywgJzIwMCcsICctaW1hZScsICc8aW5maWxlLm1hZT4nLCAnLW9tYWUnLCAnPG91dGZpbGUubWFlPic=

>  <r_epik_Ionization_Penalty>  (190) 
0.8681

>  <r_epik_Ionization_Penalty_Charging>  (190) 
0.867076

>  <r_epik_Ionization_Penalty_Neutral>  (190) 
0.0010235

>  <r_epik_State_Penalty>  (190) 
0.0277249

>  <r_epik_Charging_Adjusted_Penalty>  (190) 
0.894801

>  <i_epik_Tot_Q>  (190) 
-1

>  <i_epik_Tot_abs_Q>  (190) 
1

>  <s_epik_Chemistry_Notes>  (190) 
This compound has an imine and may undergo hydrolysis.

>  <s_lp_Force_Field>  (190) 
OPLS3e

>  <r_lp_Energy>  (190) 
27.0773

>  <b_lp_Chiralities_Consistent>  (190) 
1

>  <s_lp_Variant>  (190) 
65:0-1

>  <s_i_glide_gridfile>  (190) 
pfpi4k_grid

>  <i_i_glide_lignum>  (190) 
11

>  <i_i_glide_rotatable_bonds>  (190) 
1

>  <r_i_docking_score>  (190) 
-2.86923

>  <r_i_glide_ligand_efficiency>  (190) 
-0.114769

>  <r_i_glide_ligand_efficiency_sa>  (190) 
-0.335587

>  <r_i_glide_ligand_efficiency_ln>  (190) 
-0.680094

>  <r_i_glide_gscore>  (190) 
-2.86923

>  <r_i_glide_lipo>  (190) 
-0.973565

>  <r_i_glide_hbond>  (190) 
-0.177447

>  <r_i_glide_metal>  (190) 
-0

>  <r_i_glide_rewards>  (190) 
-1.1466

>  <r_i_glide_evdw>  (190) 
-20.7272

>  <r_i_glide_ecoul>  (190) 
2.39828

>  <r_i_glide_erotb>  (190) 
0.169591

>  <r_i_glide_esite>  (190) 
-0.0645869

>  <r_i_glide_emodel>  (190) 
-21.7459

>  <r_i_glide_energy>  (190) 
-18.329

>  <r_i_glide_einternal>  (190) 
0.0430884

>  <r_i_glide_intrahb_reward>  (190) 
-0

>  <i_i_glide_confnum>  (190) 
1

>  <i_i_glide_posenum>  (190) 
29

>  <r_i_glide_eff_state_penalty>  (190) 
0

>  <ligand_id>  (190) 
65

>  <original_smiles>  (190) 
CN1C(=O)C2(NC3=CCCC(=O)C3C2c2ccco2)c2ccccc21

>  <smiles>  (190) 
[H]C1=C2C(=C([O-])C([H])([H])C1([H])[H])C([H])(c1oc([H])c([H])c1[H])C1(C(=O)N(C([H])([H])[H])c3c([H])c([H])c([H])c([H])c31)N2[H]

$$$$
65:1:0
     RDKit          3D

 43 47  0  0  1  0  0  0  0  0999 V2000
    4.7004   -4.6243    4.4701 C   0  0  0  0  0  0  0  0  0  0  0  0
    4.4780   -4.0654    3.1456 N   0  0  0  0  0  0  0  0  0  0  0  0
    4.2875   -4.7506    2.0071 C   0  0  0  0  0  0  0  0  0  0  0  0
    4.2260   -5.9800    1.9069 O   0  0  0  0  0  0  0  0  0  0  0  0
    4.1153   -3.8220    0.7963 C   0  0  2  0  0  0  0  0  0  0  0  0
    2.8522   -3.9080    0.0776 N   0  0  0  0  0  0  0  0  0  0  0  0
    3.0894   -3.5213   -1.2130 C   0  0  0  0  0  0  0  0  0  0  0  0
    2.1782   -3.0830   -2.0775 C   0  0  0  0  0  0  0  0  0  0  0  0
    2.5225   -2.4929   -3.4222 C   0  0  0  0  0  0  0  0  0  0  0  0
    4.0108   -2.6292   -3.8224 C   0  0  0  0  0  0  0  0  0  0  0  0
    4.9263   -3.1123   -2.7019 C   0  0  0  0  0  0  0  0  0  0  0  0
    6.2009   -3.0643   -3.0641 O   0  0  0  0  0  0  0  0  0  0  0  0
    4.4819   -3.5140   -1.4934 C   0  0  0  0  0  0  0  0  0  0  0  0
    5.2379   -4.0112   -0.2872 C   0  0  1  0  0  0  0  0  0  0  0  0
    6.5830   -3.3984   -0.0221 C   0  0  0  0  0  0  0  0  0  0  0  0
    7.8242   -3.9363    0.1859 C   0  0  0  0  0  0  0  0  0  0  0  0
    8.6995   -2.8300    0.4400 C   0  0  0  0  0  0  0  0  0  0  0  0
    7.9072   -1.7288    0.4453 C   0  0  0  0  0  0  0  0  0  0  0  0
    6.6404   -2.0454    0.0865 O   0  0  0  0  0  0  0  0  0  0  0  0
    4.1737   -2.5003    1.5380 C   0  0  0  0  0  0  0  0  0  0  0  0
    3.9769   -1.2014    1.0004 C   0  0  0  0  0  0  0  0  0  0  0  0
    4.0903   -0.1017    1.8859 C   0  0  0  0  0  0  0  0  0  0  0  0
    4.3730   -0.3015    3.2540 C   0  0  0  0  0  0  0  0  0  0  0  0
    4.5232   -1.6028    3.7865 C   0  0  0  0  0  0  0  0  0  0  0  0
    4.4077   -2.6885    2.8912 C   0  0  0  0  0  0  0  0  0  0  0  0
    4.5309   -5.6981    4.4811 H   0  0  0  0  0  0  0  0  0  0  0  0
    4.0260   -4.1722    5.1947 H   0  0  0  0  0  0  0  0  0  0  0  0
    5.7307   -4.4427    4.7677 H   0  0  0  0  0  0  0  0  0  0  0  0
    2.2592   -1.4386   -3.3500 H   0  0  0  0  0  0  0  0  0  0  0  0
    1.8663   -2.9391   -4.1707 H   0  0  0  0  0  0  0  0  0  0  0  0
    4.0741   -3.3484   -4.6396 H   0  0  0  0  0  0  0  0  0  0  0  0
    4.3749   -1.6642   -4.1880 H   0  0  0  0  0  0  0  0  0  0  0  0
    1.1383   -3.0567   -1.8075 H   0  0  0  0  0  0  0  0  0  0  0  0
    5.3744   -5.0781   -0.4540 H   0  0  0  0  0  0  0  0  0  0  0  0
    8.0714   -4.9888    0.1611 H   0  0  0  0  0  0  0  0  0  0  0  0
    9.7616   -2.8276    0.6480 H   0  0  0  0  0  0  0  0  0  0  0  0
    8.0728   -0.6754    0.6182 H   0  0  0  0  0  0  0  0  0  0  0  0
    3.7667   -1.0470   -0.0573 H   0  0  0  0  0  0  0  0  0  0  0  0
    3.9695    0.8949    1.4864 H   0  0  0  0  0  0  0  0  0  0  0  0
    4.4727    0.5571    3.8963 H   0  0  0  0  0  0  0  0  0  0  0  0
    4.7264   -1.7622    4.8320 H   0  0  0  0  0  0  0  0  0  0  0  0
    1.9765   -3.7471    0.5529 H   0  0  0  0  0  0  0  0  0  0  0  0
    6.7101   -3.4486   -2.3686 H   0  0  0  0  0  0  0  0  0  0  0  0
  1  2  1  0
  1 26  1  0
  1 27  1  0
  1 28  1  0
  2 25  1  0
  2  3  1  0
  3  4  2  0
  3  5  1  0
  5 14  1  0
  5 20  1  0
  5  6  1  6
  6  7  1  0
  6 42  1  0
  7  8  2  0
  7 13  1  0
  8  9  1  0
  8 33  1  0
  9 10  1  0
  9 29  1  0
  9 30  1  0
 10 11  1  0
 10 31  1  0
 10 32  1  0
 11 12  1  0
 11 13  2  0
 12 43  1  0
 13 14  1  0
 14 15  1  0
 14 34  1  6
 15 19  1  0
 15 16  2  0
 16 17  1  0
 16 35  1  0
 17 18  2  0
 17 36  1  0
 18 19  1  0
 18 37  1  0
 20 25  2  0
 20 21  1  0
 21 22  2  0
 21 38  1  0
 22 23  1  0
 22 39  1  0
 23 24  2  0
 23 40  1  0
 24 25  1  0
 24 41  1  0
M  END
>  <i_m_ct_stereo_status>  (191) 
1

>  <s_m_source_file>  (191) 
/var/tmp/pbs.5076255.sched01/tmppxy1xzy0/80exjuxwr6.sdf

>  <i_m_source_file_index>  (191) 
12

>  <i_lp_mmshare_version>  (191) 
48012

>  <i_f3d_flags>  (191) 
0

>  <s_epik_input>  (191) 
W2NIXTFbY0hdW2NIXVtjSF1jKE4oW0NIM10pQzI9TyljMVtDQF0yM1tOSF1DPTRbQ0BIXShDKD1PKVtDSDJdW0NIMl1bQ0hdNClbQ0BIXTNjNVtjSF1bY0hdW2NIXW81

>  <s_epik_cmdline>  (191) 
J2VwaWtfcHl0aG9uJywgJy1waHQnLCAnMi4wJywgJy1waCcsICc3LjAnLCAnLXRuJywgJzgnLCAnLW1hJywgJzIwMCcsICctaW1hZScsICc8aW5maWxlLm1hZT4nLCAnLW9tYWUnLCAnPG91dGZpbGUubWFlPic=

>  <r_epik_Ionization_Penalty>  (191) 
0.262274

>  <r_epik_Ionization_Penalty_Charging>  (191) 
0.106309

>  <r_epik_Ionization_Penalty_Neutral>  (191) 
0.155965

>  <r_epik_State_Penalty>  (191) 
1.83494

>  <r_epik_Charging_Adjusted_Penalty>  (191) 
1.94125

>  <i_epik_Tot_Q>  (191) 
0

>  <i_epik_Tot_abs_Q>  (191) 
0

>  <s_epik_Chemistry_Notes>  (191) 
This compound has an imine and may undergo hydrolysis.

>  <s_lp_Force_Field>  (191) 
OPLS3e

>  <r_lp_Energy>  (191) 
23.3872

>  <b_lp_Chiralities_Consistent>  (191) 
1

>  <s_lp_Variant>  (191) 
65:0-2

>  <s_i_glide_gridfile>  (191) 
pfpi4k_grid

>  <i_i_glide_lignum>  (191) 
12

>  <i_i_glide_rotatable_bonds>  (191) 
2

>  <r_i_docking_score>  (191) 
-3.52896

>  <r_i_glide_ligand_efficiency>  (191) 
-0.141158

>  <r_i_glide_ligand_efficiency_sa>  (191) 
-0.41275

>  <r_i_glide_ligand_efficiency_ln>  (191) 
-0.836469

>  <r_i_glide_gscore>  (191) 
-3.52896

>  <r_i_glide_lipo>  (191) 
-1.21524

>  <r_i_glide_hbond>  (191) 
0

>  <r_i_glide_metal>  (191) 
-0

>  <r_i_glide_rewards>  (191) 
-1.15643

>  <r_i_glide_evdw>  (191) 
-25.497

>  <r_i_glide_ecoul>  (191) 
-0.16928

>  <r_i_glide_erotb>  (191) 
0.168687

>  <r_i_glide_esite>  (191) 
-0.0257328

>  <r_i_glide_emodel>  (191) 
-30.3117

>  <r_i_glide_energy>  (191) 
-25.6663

>  <r_i_glide_einternal>  (191) 
0.761591

>  <r_i_glide_intrahb_reward>  (191) 
-0

>  <i_i_glide_confnum>  (191) 
6

>  <i_i_glide_posenum>  (191) 
32

>  <r_i_glide_eff_state_penalty>  (191) 
0

>  <ligand_id>  (191) 
65

>  <original_smiles>  (191) 
CN1C(=O)C2(NC3=CCCC(=O)C3C2c2ccco2)c2ccccc21

>  <smiles>  (191) 
[H]OC1=C2C(=C([H])C([H])([H])C1([H])[H])N([H])C1(C(=O)N(C([H])([H])[H])c3c([H])c([H])c([H])c([H])c31)C2([H])c1oc([H])c([H])c1[H]

$$$$
65:1:1
     RDKit          3D

 43 47  0  0  1  0  0  0  0  0999 V2000
    4.5999   -4.5222    4.5192 C   0  0  0  0  0  0  0  0  0  0  0  0
    4.4169   -4.0180    3.1673 N   0  0  0  0  0  0  0  0  0  0  0  0
    4.1814   -4.7430    2.0651 C   0  0  0  0  0  0  0  0  0  0  0  0
    4.0442   -5.9737    2.0224 O   0  0  0  0  0  0  0  0  0  0  0  0
    4.0717   -3.8650    0.8090 C   0  0  2  0  0  0  0  0  0  0  0  0
    2.8044   -3.9040    0.0943 N   0  0  0  0  0  0  0  0  0  0  0  0
    3.0663   -3.5808   -1.2092 C   0  0  0  0  0  0  0  0  0  0  0  0
    2.1786   -3.1373   -2.0989 C   0  0  0  0  0  0  0  0  0  0  0  0
    2.5593   -2.6364   -3.4711 C   0  0  0  0  0  0  0  0  0  0  0  0
    4.0380   -2.8872   -3.8599 C   0  0  0  0  0  0  0  0  0  0  0  0
    4.9207   -3.3633   -2.7176 C   0  0  0  0  0  0  0  0  0  0  0  0
    6.1901   -3.4224   -3.0862 O   0  0  0  0  0  0  0  0  0  0  0  0
    4.4582   -3.6720   -1.4851 C   0  0  0  0  0  0  0  0  0  0  0  0
    5.1726   -4.1693   -0.2571 C   0  0  1  0  0  0  0  0  0  0  0  0
    6.5432   -3.6359    0.0392 C   0  0  0  0  0  0  0  0  0  0  0  0
    7.1408   -2.4186   -0.0749 C   0  0  0  0  0  0  0  0  0  0  0  0
    8.4773   -2.5784    0.4228 C   0  0  0  0  0  0  0  0  0  0  0  0
    8.5636   -3.8694    0.8415 C   0  0  0  0  0  0  0  0  0  0  0  0
    7.3968   -4.5284    0.6122 O   0  0  0  0  0  0  0  0  0  0  0  0
    4.2275   -2.5151    1.4804 C   0  0  0  0  0  0  0  0  0  0  0  0
    4.1121   -1.2372    0.8777 C   0  0  0  0  0  0  0  0  0  0  0  0
    4.2654   -0.1074    1.7142 C   0  0  0  0  0  0  0  0  0  0  0  0
    4.5340   -0.2584    3.0918 C   0  0  0  0  0  0  0  0  0  0  0  0
    4.6134   -1.5369    3.6862 C   0  0  0  0  0  0  0  0  0  0  0  0
    4.4405   -2.6544    2.8404 C   0  0  0  0  0  0  0  0  0  0  0  0
    4.3630   -5.5818    4.5773 H   0  0  0  0  0  0  0  0  0  0  0  0
    3.9537   -3.9935    5.2166 H   0  0  0  0  0  0  0  0  0  0  0  0
    5.6385   -4.3887    4.8112 H   0  0  0  0  0  0  0  0  0  0  0  0
    2.3563   -1.5647   -3.4606 H   0  0  0  0  0  0  0  0  0  0  0  0
    1.8797   -3.0851   -4.1966 H   0  0  0  0  0  0  0  0  0  0  0  0
    4.0637   -3.6462   -4.6438 H   0  0  0  0  0  0  0  0  0  0  0  0
    4.4581   -1.9655   -4.2707 H   0  0  0  0  0  0  0  0  0  0  0  0
    1.1399   -3.0578   -1.8336 H   0  0  0  0  0  0  0  0  0  0  0  0
    5.2430   -5.2465   -0.3840 H   0  0  0  0  0  0  0  0  0  0  0  0
    6.6541   -1.5271   -0.4359 H   0  0  0  0  0  0  0  0  0  0  0  0
    9.2542   -1.8329    0.5182 H   0  0  0  0  0  0  0  0  0  0  0  0
    9.3335   -4.4596    1.3315 H   0  0  0  0  0  0  0  0  0  0  0  0
    3.9034   -1.1135   -0.1823 H   0  0  0  0  0  0  0  0  0  0  0  0
    4.1835    0.8780    1.2760 H   0  0  0  0  0  0  0  0  0  0  0  0
    4.6743    0.6236    3.6963 H   0  0  0  0  0  0  0  0  0  0  0  0
    4.7959   -1.6556    4.7428 H   0  0  0  0  0  0  0  0  0  0  0  0
    1.9382   -3.6716    0.5603 H   0  0  0  0  0  0  0  0  0  0  0  0
    6.6845   -3.7805   -2.3628 H   0  0  0  0  0  0  0  0  0  0  0  0
  1  2  1  0
  1 26  1  0
  1 27  1  0
  1 28  1  0
  2 25  1  0
  2  3  1  0
  3  4  2  0
  3  5  1  0
  5 14  1  0
  5 20  1  0
  5  6  1  6
  6  7  1  0
  6 42  1  0
  7  8  2  0
  7 13  1  0
  8  9  1  0
  8 33  1  0
  9 10  1  0
  9 29  1  0
  9 30  1  0
 10 11  1  0
 10 31  1  0
 10 32  1  0
 11 12  1  0
 11 13  2  0
 12 43  1  0
 13 14  1  0
 14 15  1  0
 14 34  1  6
 15 19  1  0
 15 16  2  0
 16 17  1  0
 16 35  1  0
 17 18  2  0
 17 36  1  0
 18 19  1  0
 18 37  1  0
 20 25  2  0
 20 21  1  0
 21 22  2  0
 21 38  1  0
 22 23  1  0
 22 39  1  0
 23 24  2  0
 23 40  1  0
 24 25  1  0
 24 41  1  0
M  END
>  <i_m_ct_stereo_status>  (192) 
1

>  <s_m_source_file>  (192) 
/var/tmp/pbs.5076255.sched01/tmppxy1xzy0/80exjuxwr6.sdf

>  <i_m_source_file_index>  (192) 
12

>  <i_lp_mmshare_version>  (192) 
48012

>  <i_f3d_flags>  (192) 
0

>  <s_epik_input>  (192) 
W2NIXTFbY0hdW2NIXVtjSF1jKE4oW0NIM10pQzI9TyljMVtDQF0yM1tOSF1DPTRbQ0BIXShDKD1PKVtDSDJdW0NIMl1bQ0hdNClbQ0BIXTNjNVtjSF1bY0hdW2NIXW81

>  <s_epik_cmdline>  (192) 
J2VwaWtfcHl0aG9uJywgJy1waHQnLCAnMi4wJywgJy1waCcsICc3LjAnLCAnLXRuJywgJzgnLCAnLW1hJywgJzIwMCcsICctaW1hZScsICc8aW5maWxlLm1hZT4nLCAnLW9tYWUnLCAnPG91dGZpbGUubWFlPic=

>  <r_epik_Ionization_Penalty>  (192) 
0.262274

>  <r_epik_Ionization_Penalty_Charging>  (192) 
0.106309

>  <r_epik_Ionization_Penalty_Neutral>  (192) 
0.155965

>  <r_epik_State_Penalty>  (192) 
1.83494

>  <r_epik_Charging_Adjusted_Penalty>  (192) 
1.94125

>  <i_epik_Tot_Q>  (192) 
0

>  <i_epik_Tot_abs_Q>  (192) 
0

>  <s_epik_Chemistry_Notes>  (192) 
This compound has an imine and may undergo hydrolysis.

>  <s_lp_Force_Field>  (192) 
OPLS3e

>  <r_lp_Energy>  (192) 
23.3872

>  <b_lp_Chiralities_Consistent>  (192) 
1

>  <s_lp_Variant>  (192) 
65:0-2

>  <s_i_glide_gridfile>  (192) 
pfpi4k_grid

>  <i_i_glide_lignum>  (192) 
12

>  <i_i_glide_rotatable_bonds>  (192) 
2

>  <r_i_docking_score>  (192) 
-3.39747

>  <r_i_glide_ligand_efficiency>  (192) 
-0.135899

>  <r_i_glide_ligand_efficiency_sa>  (192) 
-0.39737

>  <r_i_glide_ligand_efficiency_ln>  (192) 
-0.805302

>  <r_i_glide_gscore>  (192) 
-3.39747

>  <r_i_glide_lipo>  (192) 
-1.18904

>  <r_i_glide_hbond>  (192) 
0

>  <r_i_glide_metal>  (192) 
-0

>  <r_i_glide_rewards>  (192) 
-1.15075

>  <r_i_glide_evdw>  (192) 
-25.3494

>  <r_i_glide_ecoul>  (192) 
0.459167

>  <r_i_glide_erotb>  (192) 
0.168687

>  <r_i_glide_esite>  (192) 
-0.0277737

>  <r_i_glide_emodel>  (192) 
-29.339

>  <r_i_glide_energy>  (192) 
-24.8903

>  <r_i_glide_einternal>  (192) 
0.754815

>  <r_i_glide_intrahb_reward>  (192) 
-0

>  <i_i_glide_confnum>  (192) 
1

>  <i_i_glide_posenum>  (192) 
8

>  <r_i_glide_eff_state_penalty>  (192) 
0

>  <ligand_id>  (192) 
65

>  <original_smiles>  (192) 
CN1C(=O)C2(NC3=CCCC(=O)C3C2c2ccco2)c2ccccc21

>  <smiles>  (192) 
[H]OC1=C2C(=C([H])C([H])([H])C1([H])[H])N([H])C1(C(=O)N(C([H])([H])[H])c3c([H])c([H])c([H])c([H])c31)C2([H])c1oc([H])c([H])c1[H]

$$$$
65:1:2
     RDKit          3D

 43 47  0  0  1  0  0  0  0  0999 V2000
   -2.1571    3.0007    4.4582 C   0  0  0  0  0  0  0  0  0  0  0  0
   -0.8413    2.5374    4.0491 N   0  0  0  0  0  0  0  0  0  0  0  0
   -0.4680    1.2464    3.9155 C   0  0  0  0  0  0  0  0  0  0  0  0
   -1.1731    0.2538    4.1097 O   0  0  0  0  0  0  0  0  0  0  0  0
    1.0167    1.1511    3.5081 C   0  0  2  0  0  0  0  0  0  0  0  0
    1.2820    0.4527    2.2576 N   0  0  0  0  0  0  0  0  0  0  0  0
    2.5435   -0.0715    2.3237 C   0  0  0  0  0  0  0  0  0  0  0  0
    3.3239   -0.3738    1.2836 C   0  0  0  0  0  0  0  0  0  0  0  0
    4.7811   -0.7618    1.4345 C   0  0  0  0  0  0  0  0  0  0  0  0
    5.2472   -0.9926    2.9022 C   0  0  0  0  0  0  0  0  0  0  0  0
    4.2466   -0.5496    3.9645 C   0  0  0  0  0  0  0  0  0  0  0  0
    4.7733   -0.6528    5.1919 O   0  0  0  0  0  0  0  0  0  0  0  0
    3.0054   -0.1111    3.6797 C   0  0  0  0  0  0  0  0  0  0  0  0
    1.8887    0.4055    4.5777 C   0  0  1  0  0  0  0  0  0  0  0  0
    2.2490    1.2126    5.7937 C   0  0  0  0  0  0  0  0  0  0  0  0
    3.3566    1.8897    6.2209 C   0  0  0  0  0  0  0  0  0  0  0  0
    3.0193    2.4802    7.4748 C   0  0  0  0  0  0  0  0  0  0  0  0
    1.7234    2.1316    7.7208 C   0  0  0  0  0  0  0  0  0  0  0  0
    1.2408    1.3593    6.7064 O   0  0  0  0  0  0  0  0  0  0  0  0
    1.3371    2.6325    3.3945 C   0  0  0  0  0  0  0  0  0  0  0  0
    2.5293    3.2391    2.9572 C   0  0  0  0  0  0  0  0  0  0  0  0
    2.5857    4.6480    2.9164 C   0  0  0  0  0  0  0  0  0  0  0  0
    1.4654    5.4232    3.3024 C   0  0  0  0  0  0  0  0  0  0  0  0
    0.2679    4.8015    3.7163 C   0  0  0  0  0  0  0  0  0  0  0  0
    0.2295    3.3931    3.7430 C   0  0  0  0  0  0  0  0  0  0  0  0
   -2.8705    2.1802    4.4766 H   0  0  0  0  0  0  0  0  0  0  0  0
   -2.5255    3.7483    3.7602 H   0  0  0  0  0  0  0  0  0  0  0  0
   -2.0957    3.4294    5.4559 H   0  0  0  0  0  0  0  0  0  0  0  0
    5.3693    0.0383    0.9797 H   0  0  0  0  0  0  0  0  0  0  0  0
    4.9529   -1.6590    0.8415 H   0  0  0  0  0  0  0  0  0  0  0  0
    5.4313   -2.0578    3.0494 H   0  0  0  0  0  0  0  0  0  0  0  0
    6.1971   -0.4770    3.0666 H   0  0  0  0  0  0  0  0  0  0  0  0
    2.9342   -0.2690    0.2816 H   0  0  0  0  0  0  0  0  0  0  0  0
    1.3619   -0.4909    4.9153 H   0  0  0  0  0  0  0  0  0  0  0  0
    4.2935    1.9574    5.6874 H   0  0  0  0  0  0  0  0  0  0  0  0
    3.6408    3.0883    8.1186 H   0  0  0  0  0  0  0  0  0  0  0  0
    1.0267    2.3353    8.5239 H   0  0  0  0  0  0  0  0  0  0  0  0
    3.3722    2.6398    2.6429 H   0  0  0  0  0  0  0  0  0  0  0  0
    3.4806    5.1349    2.5729 H   0  0  0  0  0  0  0  0  0  0  0  0
    1.5203    6.5024    3.2521 H   0  0  0  0  0  0  0  0  0  0  0  0
   -0.5964    5.3916    3.9774 H   0  0  0  0  0  0  0  0  0  0  0  0
    0.8725    0.7628    1.3843 H   0  0  0  0  0  0  0  0  0  0  0  0
    4.1163   -0.3782    5.8091 H   0  0  0  0  0  0  0  0  0  0  0  0
  1  2  1  0
  1 26  1  0
  1 27  1  0
  1 28  1  0
  2 25  1  0
  2  3  1  0
  3  4  2  0
  3  5  1  0
  5 14  1  0
  5 20  1  0
  5  6  1  6
  6  7  1  0
  6 42  1  0
  7  8  2  0
  7 13  1  0
  8  9  1  0
  8 33  1  0
  9 10  1  0
  9 29  1  0
  9 30  1  0
 10 11  1  0
 10 31  1  0
 10 32  1  0
 11 12  1  0
 11 13  2  0
 12 43  1  0
 13 14  1  0
 14 15  1  0
 14 34  1  1
 15 19  1  0
 15 16  2  0
 16 17  1  0
 16 35  1  0
 17 18  2  0
 17 36  1  0
 18 19  1  0
 18 37  1  0
 20 25  2  0
 20 21  1  0
 21 22  2  0
 21 38  1  0
 22 23  1  0
 22 39  1  0
 23 24  2  0
 23 40  1  0
 24 25  1  0
 24 41  1  0
M  END
>  <i_m_ct_stereo_status>  (193) 
1

>  <s_m_source_file>  (193) 
/var/tmp/pbs.5076255.sched01/tmppxy1xzy0/80exjuxwr6.sdf

>  <i_m_source_file_index>  (193) 
12

>  <i_lp_mmshare_version>  (193) 
48012

>  <i_f3d_flags>  (193) 
0

>  <s_epik_input>  (193) 
W2NIXTFbY0hdW2NIXVtjSF1jKE4oW0NIM10pQzI9TyljMVtDQF0yM1tOSF1DPTRbQ0BIXShDKD1PKVtDSDJdW0NIMl1bQ0hdNClbQ0BIXTNjNVtjSF1bY0hdW2NIXW81

>  <s_epik_cmdline>  (193) 
J2VwaWtfcHl0aG9uJywgJy1waHQnLCAnMi4wJywgJy1waCcsICc3LjAnLCAnLXRuJywgJzgnLCAnLW1hJywgJzIwMCcsICctaW1hZScsICc8aW5maWxlLm1hZT4nLCAnLW9tYWUnLCAnPG91dGZpbGUubWFlPic=

>  <r_epik_Ionization_Penalty>  (193) 
0.262274

>  <r_epik_Ionization_Penalty_Charging>  (193) 
0.106309

>  <r_epik_Ionization_Penalty_Neutral>  (193) 
0.155965

>  <r_epik_State_Penalty>  (193) 
1.83494

>  <r_epik_Charging_Adjusted_Penalty>  (193) 
1.94125

>  <i_epik_Tot_Q>  (193) 
0

>  <i_epik_Tot_abs_Q>  (193) 
0

>  <s_epik_Chemistry_Notes>  (193) 
This compound has an imine and may undergo hydrolysis.

>  <s_lp_Force_Field>  (193) 
OPLS3e

>  <r_lp_Energy>  (193) 
23.3872

>  <b_lp_Chiralities_Consistent>  (193) 
1

>  <s_lp_Variant>  (193) 
65:0-2

>  <s_i_glide_gridfile>  (193) 
pfpi4k_grid

>  <i_i_glide_lignum>  (193) 
12

>  <i_i_glide_rotatable_bonds>  (193) 
2

>  <r_i_docking_score>  (193) 
-2.40788

>  <r_i_glide_ligand_efficiency>  (193) 
-0.0963151

>  <r_i_glide_ligand_efficiency_sa>  (193) 
-0.281627

>  <r_i_glide_ligand_efficiency_ln>  (193) 
-0.570739

>  <r_i_glide_gscore>  (193) 
-2.40788

>  <r_i_glide_lipo>  (193) 
-0.247878

>  <r_i_glide_hbond>  (193) 
0

>  <r_i_glide_metal>  (193) 
-0

>  <r_i_glide_rewards>  (193) 
-1.12931

>  <r_i_glide_evdw>  (193) 
-23.1554

>  <r_i_glide_ecoul>  (193) 
0.369872

>  <r_i_glide_erotb>  (193) 
0.168687

>  <r_i_glide_esite>  (193) 
-0.0970905

>  <r_i_glide_emodel>  (193) 
-26.1713

>  <r_i_glide_energy>  (193) 
-22.7855

>  <r_i_glide_einternal>  (193) 
0.00545164

>  <r_i_glide_intrahb_reward>  (193) 
-0

>  <i_i_glide_confnum>  (193) 
3

>  <i_i_glide_posenum>  (193) 
34

>  <r_i_glide_eff_state_penalty>  (193) 
0

>  <ligand_id>  (193) 
65

>  <original_smiles>  (193) 
CN1C(=O)C2(NC3=CCCC(=O)C3C2c2ccco2)c2ccccc21

>  <smiles>  (193) 
[H]OC1=C2C(=C([H])C([H])([H])C1([H])[H])N([H])C1(C(=O)N(C([H])([H])[H])c3c([H])c([H])c([H])c([H])c31)C2([H])c1oc([H])c([H])c1[H]

$$$$
66:0:0
     RDKit          3D

 46 52  0  0  1  0  0  0  0  0999 V2000
    1.5336   -5.7446    0.1230 O   0  0  0  0  0  0  0  0  0  0  0  0
    2.7055   -5.3832    0.2538 C   0  0  0  0  0  0  0  0  0  0  0  0
    3.2376   -3.7905    0.1384 C   0  0  1  0  0  0  0  0  0  0  0  0
    3.9521   -3.6743    1.3391 C   0  0  1  0  0  0  0  0  0  0  0  0
    3.8334   -3.9742    2.7897 C   0  0  0  0  0  0  0  0  0  0  0  0
    5.3841   -4.1271    3.0653 C   0  0  0  0  0  0  0  0  0  0  0  0
    6.1265   -4.6503    1.7292 C   0  0  2  0  0  0  0  0  0  0  0  0
    5.9695   -3.8002    0.3050 C   0  0  1  0  0  0  0  0  0  0  0  0
    5.0201   -4.6611    0.6401 C   0  0  1  0  0  0  0  0  0  0  0  0
    5.4001   -5.9842    1.1544 C   0  0  1  0  0  0  0  0  0  0  0  0
    5.4489   -6.9834    2.3698 C   0  0  2  0  0  0  0  0  0  0  0  0
    5.6643   -8.3401    1.7217 C   0  0  0  0  0  0  0  0  0  0  0  0
    4.4889   -8.7527    1.2482 C   0  0  0  0  0  0  0  0  0  0  0  0
    3.4714   -7.6794    1.5644 C   0  0  1  0  0  0  0  0  0  0  0  0
    4.0428   -7.2965    2.9232 C   0  0  0  0  0  0  0  0  0  0  0  0
    3.8597   -6.4716    0.6699 C   0  0  1  0  0  0  0  0  0  0  0  0
    4.6356   -3.2400   -0.4367 N   0  0  0  0  0  0  0  0  0  0  0  0
    4.7674   -2.4066   -1.4921 C   0  0  0  0  0  0  0  0  0  0  0  0
    5.8663   -1.9664   -1.8335 O   0  0  0  0  0  0  0  0  0  0  0  0
    3.4896   -1.9590   -2.2377 C   0  0  0  0  0  0  0  0  0  0  0  0
    3.2589   -2.6823   -3.5729 C   0  0  0  0  0  0  0  0  0  0  0  0
    3.9166   -1.4767   -4.2614 C   0  0  0  0  0  0  0  0  0  0  0  0
    3.5894   -0.6516   -3.0255 C   0  0  0  0  0  0  0  0  0  0  0  0
    2.4048   -3.0796    0.1650 H   0  0  0  0  0  0  0  0  0  0  0  0
    4.2273   -2.6050    1.5253 H   0  0  0  0  0  0  0  0  0  0  0  0
    3.3920   -3.1474    3.3505 H   0  0  0  0  0  0  0  0  0  0  0  0
    3.1719   -4.8092    2.9206 H   0  0  0  0  0  0  0  0  0  0  0  0
    5.7927   -3.1494    3.3287 H   0  0  0  0  0  0  0  0  0  0  0  0
    5.5627   -4.7792    3.9180 H   0  0  0  0  0  0  0  0  0  0  0  0
    7.1946   -4.8452    1.9068 H   0  0  0  0  0  0  0  0  0  0  0  0
    6.7374   -4.1554   -0.3899 H   0  0  0  0  0  0  0  0  0  0  0  0
    5.0726   -5.1771   -0.3927 H   0  0  0  0  0  0  0  0  0  0  0  0
    6.2014   -6.7952    3.1374 H   0  0  0  0  0  0  0  0  0  0  0  0
    6.6123   -8.8494    1.6679 H   0  0  0  0  0  0  0  0  0  0  0  0
    4.2656   -9.6735    0.7251 H   0  0  0  0  0  0  0  0  0  0  0  0
    2.4296   -7.9959    1.5569 H   0  0  0  0  0  0  0  0  0  0  0  0
    4.0603   -8.1599    3.5897 H   0  0  0  0  0  0  0  0  0  0  0  0
    3.5211   -6.5761    3.5283 H   0  0  0  0  0  0  0  0  0  0  0  0
    3.9981   -6.9435   -0.3052 H   0  0  0  0  0  0  0  0  0  0  0  0
    2.6167   -1.9200   -1.6059 H   0  0  0  0  0  0  0  0  0  0  0  0
    3.7913   -3.6318   -3.6754 H   0  0  0  0  0  0  0  0  0  0  0  0
    2.1971   -2.7959   -3.8023 H   0  0  0  0  0  0  0  0  0  0  0  0
    4.9963   -1.5963   -4.3403 H   0  0  0  0  0  0  0  0  0  0  0  0
    3.4369   -1.1316   -5.1788 H   0  0  0  0  0  0  0  0  0  0  0  0
    2.6223   -0.1495   -3.0912 H   0  0  0  0  0  0  0  0  0  0  0  0
    4.3622    0.0437   -2.6823 H   0  0  0  0  0  0  0  0  0  0  0  0
  1  2  2  0
  2 16  1  0
  2  3  1  0
  3 17  1  0
  3  4  1  0
  3 24  1  1
  4  9  1  0
  4  5  1  0
  4 25  1  1
  5  6  1  0
  5 26  1  0
  5 27  1  0
  6  7  1  0
  6 28  1  0
  6 29  1  0
  7 10  1  0
  7  8  1  0
  7 30  1  1
  8  9  1  0
  8 17  1  0
  8 31  1  6
  9 10  1  0
  9 32  1  6
 10 16  1  0
 10 11  1  6
 11 15  1  0
 11 12  1  0
 11 33  1  1
 12 13  2  0
 12 34  1  0
 13 14  1  0
 13 35  1  0
 14 15  1  0
 14 16  1  0
 14 36  1  1
 15 37  1  0
 15 38  1  0
 16 39  1  6
 17 18  1  0
 18 19  2  0
 18 20  1  0
 20 23  1  0
 20 21  1  0
 20 40  1  0
 21 22  1  0
 21 41  1  0
 21 42  1  0
 22 23  1  0
 22 43  1  0
 22 44  1  0
 23 45  1  0
 23 46  1  0
M  END
>  <i_m_ct_stereo_status>  (194) 
1

>  <s_m_source_file>  (194) 
/var/tmp/pbs.5076255.sched01/tmppxy1xzy0/80exjuxwr6.sdf

>  <i_m_source_file_index>  (194) 
13

>  <i_lp_mmshare_version>  (194) 
48012

>  <i_f3d_flags>  (194) 
0

>  <s_epik_input>  (194) 
W0NIMl0xW0NASF0yW0NIXT1bQ0hdW0NAQEhdMVtDQEhdM0MoPU8pW0NAQEhdKFtDQEhdKFtDSDJdW0NIMl00KVtDQEhdNVtDQEBIXTZbQ0BASF00QzIzNSlONkMoPU8pW0NIXTdbQ0gyXVtDSDJdW0NIMl03

>  <s_epik_cmdline>  (194) 
J2VwaWtfcHl0aG9uJywgJy1waHQnLCAnMi4wJywgJy1waCcsICc3LjAnLCAnLXRuJywgJzgnLCAnLW1hJywgJzIwMCcsICctaW1hZScsICc8aW5maWxlLm1hZT4nLCAnLW9tYWUnLCAnPG91dGZpbGUubWFlPic=

>  <r_lp_tautomer_probability>  (194) 
1

>  <r_epik_Ionization_Penalty>  (194) 
5.43791e-09

>  <r_epik_Ionization_Penalty_Charging>  (194) 
0

>  <r_epik_Ionization_Penalty_Neutral>  (194) 
5.43791e-09

>  <r_epik_State_Penalty>  (194) 
-0

>  <r_epik_Charging_Adjusted_Penalty>  (194) 
0

>  <i_epik_Tot_Q>  (194) 
0

>  <i_epik_Tot_abs_Q>  (194) 
0

>  <s_lp_Force_Field>  (194) 
OPLS3e

>  <r_lp_Energy>  (194) 
458.284

>  <b_lp_Chiralities_Consistent>  (194) 
1

>  <s_lp_Variant>  (194) 
66:0-1

>  <s_i_glide_gridfile>  (194) 
pfpi4k_grid

>  <i_i_glide_lignum>  (194) 
13

>  <i_i_glide_rotatable_bonds>  (194) 
2

>  <r_i_docking_score>  (194) 
-4.30306

>  <r_i_glide_ligand_efficiency>  (194) 
-0.187089

>  <r_i_glide_ligand_efficiency_sa>  (194) 
-0.532057

>  <r_i_glide_ligand_efficiency_ln>  (194) 
-1.04052

>  <r_i_glide_gscore>  (194) 
-4.30306

>  <r_i_glide_lipo>  (194) 
-0.804631

>  <r_i_glide_hbond>  (194) 
-0.168725

>  <r_i_glide_metal>  (194) 
-0

>  <r_i_glide_rewards>  (194) 
-1.34822

>  <r_i_glide_evdw>  (194) 
-28.5506

>  <r_i_glide_ecoul>  (194) 
-5.81221

>  <r_i_glide_erotb>  (194) 
0.386832

>  <r_i_glide_esite>  (194) 
-0.0689478

>  <r_i_glide_emodel>  (194) 
-43.8717

>  <r_i_glide_energy>  (194) 
-34.3628

>  <r_i_glide_einternal>  (194) 
0.12521

>  <r_i_glide_intrahb_reward>  (194) 
-0

>  <i_i_glide_confnum>  (194) 
3

>  <i_i_glide_posenum>  (194) 
12

>  <r_i_glide_eff_state_penalty>  (194) 
0

>  <ligand_id>  (194) 
66

>  <original_smiles>  (194) 
O=C1C2C3CCC4C(C3C43C4C=CC(C4)C13)N2C(=O)C1CCC1

>  <smiles>  (194) 
[H]C1=C([H])C2([H])C([H])([H])C1([H])C1([H])C(=O)C3([H])N(C(=O)C4([H])C([H])([H])C([H])([H])C4([H])[H])C4([H])C5([H])C([H])([H])C([H])([H])C3([H])C4([H])C215

$$$$
66:0:1
     RDKit          3D

 46 52  0  0  1  0  0  0  0  0999 V2000
    1.8135   -4.6845   -0.3311 O   0  0  0  0  0  0  0  0  0  0  0  0
    2.6940   -3.8496   -0.2710 C   0  0  0  0  0  0  0  0  0  0  0  0
    3.6973   -3.6800    1.0545 C   0  0  1  0  0  0  0  0  0  0  0  0
    4.9431   -3.7554    0.4254 C   0  0  1  0  0  0  0  0  0  0  0  0
    5.6813   -4.5395   -0.5870 C   0  0  0  0  0  0  0  0  0  0  0  0
    6.6513   -3.3744   -1.0464 C   0  0  0  0  0  0  0  0  0  0  0  0
    5.8968   -1.9629   -0.8657 C   0  0  2  0  0  0  0  0  0  0  0  0
    5.2920   -1.5092    0.6107 C   0  0  1  0  0  0  0  0  0  0  0  0
    4.5799   -2.3042   -0.1665 C   0  0  1  0  0  0  0  0  0  0  0  0
    4.4557   -1.9866   -1.5970 C   0  0  1  0  0  0  0  0  0  0  0  0
    4.7857   -2.3701   -3.0832 C   0  0  2  0  0  0  0  0  0  0  0  0
    3.8094   -1.5469   -3.9080 C   0  0  0  0  0  0  0  0  0  0  0  0
    2.6479   -2.1804   -3.8565 C   0  0  0  0  0  0  0  0  0  0  0  0
    2.8209   -3.4185   -3.0104 C   0  0  1  0  0  0  0  0  0  0  0  0
    4.2264   -3.7362   -3.4846 C   0  0  0  0  0  0  0  0  0  0  0  0
    3.0562   -2.9081   -1.5660 C   0  0  1  0  0  0  0  0  0  0  0  0
    4.3533   -2.3424    1.6446 N   0  0  0  0  0  0  0  0  0  0  0  0
    4.1419   -1.8642    2.8796 C   0  0  0  0  0  0  0  0  0  0  0  0
    4.7732   -0.8956    3.3045 O   0  0  0  0  0  0  0  0  0  0  0  0
    3.0962   -2.5860    3.7623 C   0  0  0  0  0  0  0  0  0  0  0  0
    1.6539   -2.1514    3.4456 C   0  0  0  0  0  0  0  0  0  0  0  0
    1.7693   -1.1469    4.6001 C   0  0  0  0  0  0  0  0  0  0  0  0
    2.8923   -2.0192    5.1763 C   0  0  0  0  0  0  0  0  0  0  0  0
    3.5908   -4.5168    1.7584 H   0  0  0  0  0  0  0  0  0  0  0  0
    5.7576   -3.8333    1.1808 H   0  0  0  0  0  0  0  0  0  0  0  0
    6.2241   -5.3671   -0.1301 H   0  0  0  0  0  0  0  0  0  0  0  0
    4.9885   -4.9736   -1.2856 H   0  0  0  0  0  0  0  0  0  0  0  0
    7.5465   -3.3773   -0.4242 H   0  0  0  0  0  0  0  0  0  0  0  0
    6.9860   -3.5161   -2.0691 H   0  0  0  0  0  0  0  0  0  0  0  0
    6.4760   -1.1281   -1.2480 H   0  0  0  0  0  0  0  0  0  0  0  0
    5.0744   -0.4328    0.5667 H   0  0  0  0  0  0  0  0  0  0  0  0
    3.6535   -1.6236   -0.0714 H   0  0  0  0  0  0  0  0  0  0  0  0
    5.8170   -2.2533   -3.4112 H   0  0  0  0  0  0  0  0  0  0  0  0
    4.0325   -0.6226   -4.4181 H   0  0  0  0  0  0  0  0  0  0  0  0
    1.7127   -1.9031   -4.3174 H   0  0  0  0  0  0  0  0  0  0  0  0
    2.0620   -4.1868   -3.1601 H   0  0  0  0  0  0  0  0  0  0  0  0
    4.2497   -3.8817   -4.5609 H   0  0  0  0  0  0  0  0  0  0  0  0
    4.7042   -4.6311   -3.1326 H   0  0  0  0  0  0  0  0  0  0  0  0
    2.2456   -2.1977   -1.4775 H   0  0  0  0  0  0  0  0  0  0  0  0
    3.2284   -3.6660    3.8054 H   0  0  0  0  0  0  0  0  0  0  0  0
    1.5022   -1.6999    2.4611 H   0  0  0  0  0  0  0  0  0  0  0  0
    0.9230   -2.9409    3.6273 H   0  0  0  0  0  0  0  0  0  0  0  0
    2.1379   -0.1775    4.2627 H   0  0  0  0  0  0  0  0  0  0  0  0
    0.8882   -1.0524    5.2318 H   0  0  0  0  0  0  0  0  0  0  0  0
    2.5379   -2.7859    5.8681 H   0  0  0  0  0  0  0  0  0  0  0  0
    3.7419   -1.4800    5.5972 H   0  0  0  0  0  0  0  0  0  0  0  0
  1  2  2  0
  2 16  1  0
  2  3  1  0
  3 17  1  0
  3  4  1  0
  3 24  1  1
  4  9  1  0
  4  5  1  0
  4 25  1  1
  5  6  1  0
  5 26  1  0
  5 27  1  0
  6  7  1  0
  6 28  1  0
  6 29  1  0
  7 10  1  0
  7  8  1  0
  7 30  1  6
  8  9  1  0
  8 17  1  0
  8 31  1  6
  9 10  1  0
  9 32  1  1
 10 16  1  0
 10 11  1  1
 11 15  1  0
 11 12  1  0
 11 33  1  6
 12 13  2  0
 12 34  1  0
 13 14  1  0
 13 35  1  0
 14 15  1  0
 14 16  1  0
 14 36  1  1
 15 37  1  0
 15 38  1  0
 16 39  1  1
 17 18  1  0
 18 19  2  0
 18 20  1  0
 20 23  1  0
 20 21  1  0
 20 40  1  0
 21 22  1  0
 21 41  1  0
 21 42  1  0
 22 23  1  0
 22 43  1  0
 22 44  1  0
 23 45  1  0
 23 46  1  0
M  END
>  <i_m_ct_stereo_status>  (195) 
1

>  <s_m_source_file>  (195) 
/var/tmp/pbs.5076255.sched01/tmppxy1xzy0/80exjuxwr6.sdf

>  <i_m_source_file_index>  (195) 
13

>  <i_lp_mmshare_version>  (195) 
48012

>  <i_f3d_flags>  (195) 
0

>  <s_epik_input>  (195) 
W0NIMl0xW0NASF0yW0NIXT1bQ0hdW0NAQEhdMVtDQEhdM0MoPU8pW0NAQEhdKFtDQEhdKFtDSDJdW0NIMl00KVtDQEhdNVtDQEBIXTZbQ0BASF00QzIzNSlONkMoPU8pW0NIXTdbQ0gyXVtDSDJdW0NIMl03

>  <s_epik_cmdline>  (195) 
J2VwaWtfcHl0aG9uJywgJy1waHQnLCAnMi4wJywgJy1waCcsICc3LjAnLCAnLXRuJywgJzgnLCAnLW1hJywgJzIwMCcsICctaW1hZScsICc8aW5maWxlLm1hZT4nLCAnLW9tYWUnLCAnPG91dGZpbGUubWFlPic=

>  <r_lp_tautomer_probability>  (195) 
1

>  <r_epik_Ionization_Penalty>  (195) 
5.43791e-09

>  <r_epik_Ionization_Penalty_Charging>  (195) 
0

>  <r_epik_Ionization_Penalty_Neutral>  (195) 
5.43791e-09

>  <r_epik_State_Penalty>  (195) 
-0

>  <r_epik_Charging_Adjusted_Penalty>  (195) 
0

>  <i_epik_Tot_Q>  (195) 
0

>  <i_epik_Tot_abs_Q>  (195) 
0

>  <s_lp_Force_Field>  (195) 
OPLS3e

>  <r_lp_Energy>  (195) 
458.284

>  <b_lp_Chiralities_Consistent>  (195) 
1

>  <s_lp_Variant>  (195) 
66:0-1

>  <s_i_glide_gridfile>  (195) 
pfpi4k_grid

>  <i_i_glide_lignum>  (195) 
13

>  <i_i_glide_rotatable_bonds>  (195) 
2

>  <r_i_docking_score>  (195) 
-3.1451

>  <r_i_glide_ligand_efficiency>  (195) 
-0.136744

>  <r_i_glide_ligand_efficiency_sa>  (195) 
-0.388881

>  <r_i_glide_ligand_efficiency_ln>  (195) 
-0.760514

>  <r_i_glide_gscore>  (195) 
-3.1451

>  <r_i_glide_lipo>  (195) 
-0.741541

>  <r_i_glide_hbond>  (195) 
-0.0251108

>  <r_i_glide_metal>  (195) 
-0

>  <r_i_glide_rewards>  (195) 
-1.31899

>  <r_i_glide_evdw>  (195) 
-21.0541

>  <r_i_glide_ecoul>  (195) 
-2.38974

>  <r_i_glide_erotb>  (195) 
0.386832

>  <r_i_glide_esite>  (195) 
-0.0351237

>  <r_i_glide_emodel>  (195) 
-29.9746

>  <r_i_glide_energy>  (195) 
-23.4438

>  <r_i_glide_einternal>  (195) 
0.264147

>  <r_i_glide_intrahb_reward>  (195) 
-0

>  <i_i_glide_confnum>  (195) 
3

>  <i_i_glide_posenum>  (195) 
2

>  <r_i_glide_eff_state_penalty>  (195) 
0

>  <ligand_id>  (195) 
66

>  <original_smiles>  (195) 
O=C1C2C3CCC4C(C3C43C4C=CC(C4)C13)N2C(=O)C1CCC1

>  <smiles>  (195) 
[H]C1=C([H])C2([H])C([H])([H])C1([H])C1([H])C(=O)C3([H])N(C(=O)C4([H])C([H])([H])C([H])([H])C4([H])[H])C4([H])C5([H])C([H])([H])C([H])([H])C3([H])C4([H])C215

$$$$
66:0:2
     RDKit          3D

 46 52  0  0  1  0  0  0  0  0999 V2000
    5.2856   -2.6405    3.8679 O   0  0  0  0  0  0  0  0  0  0  0  0
    4.6584   -3.1270    2.9220 C   0  0  0  0  0  0  0  0  0  0  0  0
    5.1997   -3.1736    1.3206 C   0  0  1  0  0  0  0  0  0  0  0  0
    5.0699   -4.5498    1.0328 C   0  0  1  0  0  0  0  0  0  0  0  0
    5.3396   -5.8982    1.6134 C   0  0  0  0  0  0  0  0  0  0  0  0
    4.1522   -6.6450    0.8730 C   0  0  0  0  0  0  0  0  0  0  0  0
    2.9320   -5.6070    0.6201 C   0  0  2  0  0  0  0  0  0  0  0  0
    3.1901   -4.1876   -0.2235 C   0  0  1  0  0  0  0  0  0  0  0  0
    3.4854   -4.2431    1.0695 C   0  0  1  0  0  0  0  0  0  0  0  0
    2.5183   -4.8508    1.9971 C   0  0  1  0  0  0  0  0  0  0  0  0
    2.1689   -6.0394    2.9662 C   0  0  2  0  0  0  0  0  0  0  0  0
    1.0121   -5.5109    3.7954 C   0  0  0  0  0  0  0  0  0  0  0  0
    1.5209   -4.6922    4.7217 C   0  0  0  0  0  0  0  0  0  0  0  0
    3.0200   -4.6652    4.5292 C   0  0  1  0  0  0  0  0  0  0  0  0
    3.1675   -6.1307    4.1363 C   0  0  0  0  0  0  0  0  0  0  0  0
    3.2425   -3.9085    3.1952 C   0  0  1  0  0  0  0  0  0  0  0  0
    4.3400   -3.0511   -0.0249 N   0  0  0  0  0  0  0  0  0  0  0  0
    4.5733   -2.0445   -0.9145 C   0  0  0  0  0  0  0  0  0  0  0  0
    5.4931   -1.2330   -0.7381 O   0  0  0  0  0  0  0  0  0  0  0  0
    3.6845   -1.9640   -2.1698 C   0  0  0  0  0  0  0  0  0  0  0  0
    4.2754   -2.6524   -3.4175 C   0  0  0  0  0  0  0  0  0  0  0  0
    3.8324   -1.4365   -4.2368 C   0  0  0  0  0  0  0  0  0  0  0  0
    3.7635   -0.6365   -2.9404 C   0  0  0  0  0  0  0  0  0  0  0  0
    6.2465   -2.8617    1.2207 H   0  0  0  0  0  0  0  0  0  0  0  0
    5.5535   -4.8027    0.0550 H   0  0  0  0  0  0  0  0  0  0  0  0
    6.3218   -6.2877    1.3212 H   0  0  0  0  0  0  0  0  0  0  0  0
    5.3493   -5.8273    2.6878 H   0  0  0  0  0  0  0  0  0  0  0  0
    4.5078   -7.0066   -0.0962 H   0  0  0  0  0  0  0  0  0  0  0  0
    3.8304   -7.5199    1.4351 H   0  0  0  0  0  0  0  0  0  0  0  0
    2.0633   -6.1085    0.1750 H   0  0  0  0  0  0  0  0  0  0  0  0
    2.1983   -3.7912   -0.4682 H   0  0  0  0  0  0  0  0  0  0  0  0
    2.8586   -3.2957    1.2698 H   0  0  0  0  0  0  0  0  0  0  0  0
    1.9102   -6.9988    2.5121 H   0  0  0  0  0  0  0  0  0  0  0  0
   -0.0217   -5.7651    3.6484 H   0  0  0  0  0  0  0  0  0  0  0  0
    0.9891   -4.1398    5.4821 H   0  0  0  0  0  0  0  0  0  0  0  0
    3.6017   -4.3431    5.3906 H   0  0  0  0  0  0  0  0  0  0  0  0
    2.7902   -6.7827    4.9245 H   0  0  0  0  0  0  0  0  0  0  0  0
    4.1499   -6.5406    3.9807 H   0  0  0  0  0  0  0  0  0  0  0  0
    2.5950   -3.0366    3.3139 H   0  0  0  0  0  0  0  0  0  0  0  0
    2.6362   -2.2292   -2.0203 H   0  0  0  0  0  0  0  0  0  0  0  0
    5.3604   -2.7679   -3.3839 H   0  0  0  0  0  0  0  0  0  0  0  0
    3.7890   -3.5855   -3.7067 H   0  0  0  0  0  0  0  0  0  0  0  0
    4.5712   -1.0549   -4.9397 H   0  0  0  0  0  0  0  0  0  0  0  0
    2.8495   -1.5589   -4.6931 H   0  0  0  0  0  0  0  0  0  0  0  0
    2.8535   -0.0494   -2.8361 H   0  0  0  0  0  0  0  0  0  0  0  0
    4.6564   -0.0371   -2.7567 H   0  0  0  0  0  0  0  0  0  0  0  0
  1  2  2  0
  2 16  1  0
  2  3  1  0
  3 17  1  0
  3  4  1  0
  3 24  1  1
  4  9  1  0
  4  5  1  0
  4 25  1  6
  5  6  1  0
  5 26  1  0
  5 27  1  0
  6  7  1  0
  6 28  1  0
  6 29  1  0
  7 10  1  0
  7  8  1  0
  7 30  1  6
  8  9  1  0
  8 17  1  0
  8 31  1  1
  9 10  1  0
  9 32  1  1
 10 16  1  0
 10 11  1  6
 11 15  1  0
 11 12  1  0
 11 33  1  6
 12 13  2  0
 12 34  1  0
 13 14  1  0
 13 35  1  0
 14 15  1  0
 14 16  1  0
 14 36  1  1
 15 37  1  0
 15 38  1  0
 16 39  1  1
 17 18  1  0
 18 19  2  0
 18 20  1  0
 20 23  1  0
 20 21  1  0
 20 40  1  0
 21 22  1  0
 21 41  1  0
 21 42  1  0
 22 23  1  0
 22 43  1  0
 22 44  1  0
 23 45  1  0
 23 46  1  0
M  END
>  <i_m_ct_stereo_status>  (196) 
1

>  <s_m_source_file>  (196) 
/var/tmp/pbs.5076255.sched01/tmppxy1xzy0/80exjuxwr6.sdf

>  <i_m_source_file_index>  (196) 
13

>  <i_lp_mmshare_version>  (196) 
48012

>  <i_f3d_flags>  (196) 
0

>  <s_epik_input>  (196) 
W0NIMl0xW0NASF0yW0NIXT1bQ0hdW0NAQEhdMVtDQEhdM0MoPU8pW0NAQEhdKFtDQEhdKFtDSDJdW0NIMl00KVtDQEhdNVtDQEBIXTZbQ0BASF00QzIzNSlONkMoPU8pW0NIXTdbQ0gyXVtDSDJdW0NIMl03

>  <s_epik_cmdline>  (196) 
J2VwaWtfcHl0aG9uJywgJy1waHQnLCAnMi4wJywgJy1waCcsICc3LjAnLCAnLXRuJywgJzgnLCAnLW1hJywgJzIwMCcsICctaW1hZScsICc8aW5maWxlLm1hZT4nLCAnLW9tYWUnLCAnPG91dGZpbGUubWFlPic=

>  <r_lp_tautomer_probability>  (196) 
1

>  <r_epik_Ionization_Penalty>  (196) 
5.43791e-09

>  <r_epik_Ionization_Penalty_Charging>  (196) 
0

>  <r_epik_Ionization_Penalty_Neutral>  (196) 
5.43791e-09

>  <r_epik_State_Penalty>  (196) 
-0

>  <r_epik_Charging_Adjusted_Penalty>  (196) 
0

>  <i_epik_Tot_Q>  (196) 
0

>  <i_epik_Tot_abs_Q>  (196) 
0

>  <s_lp_Force_Field>  (196) 
OPLS3e

>  <r_lp_Energy>  (196) 
458.284

>  <b_lp_Chiralities_Consistent>  (196) 
1

>  <s_lp_Variant>  (196) 
66:0-1

>  <s_i_glide_gridfile>  (196) 
pfpi4k_grid

>  <i_i_glide_lignum>  (196) 
13

>  <i_i_glide_rotatable_bonds>  (196) 
2

>  <r_i_docking_score>  (196) 
-3.04228

>  <r_i_glide_ligand_efficiency>  (196) 
-0.132273

>  <r_i_glide_ligand_efficiency_sa>  (196) 
-0.376167

>  <r_i_glide_ligand_efficiency_ln>  (196) 
-0.735651

>  <r_i_glide_gscore>  (196) 
-3.04228

>  <r_i_glide_lipo>  (196) 
-0.507892

>  <r_i_glide_hbond>  (196) 
0

>  <r_i_glide_metal>  (196) 
-0

>  <r_i_glide_rewards>  (196) 
-1.35644

>  <r_i_glide_evdw>  (196) 
-26.8956

>  <r_i_glide_ecoul>  (196) 
-1.29303

>  <r_i_glide_erotb>  (196) 
0.386832

>  <r_i_glide_esite>  (196) 
-0.0260493

>  <r_i_glide_emodel>  (196) 
-34.3634

>  <r_i_glide_energy>  (196) 
-28.1887

>  <r_i_glide_einternal>  (196) 
1.0768

>  <r_i_glide_intrahb_reward>  (196) 
-0

>  <i_i_glide_confnum>  (196) 
6

>  <i_i_glide_posenum>  (196) 
5

>  <r_i_glide_eff_state_penalty>  (196) 
0

>  <ligand_id>  (196) 
66

>  <original_smiles>  (196) 
O=C1C2C3CCC4C(C3C43C4C=CC(C4)C13)N2C(=O)C1CCC1

>  <smiles>  (196) 
[H]C1=C([H])C2([H])C([H])([H])C1([H])C1([H])C(=O)C3([H])N(C(=O)C4([H])C([H])([H])C([H])([H])C4([H])[H])C4([H])C5([H])C([H])([H])C([H])([H])C3([H])C4([H])C215

$$$$
67:0:0
     RDKit          3D

 27 28  0  0  1  0  0  0  0  0999 V2000
    6.1144   -3.9375    1.1830 C   0  0  0  0  0  0  0  0  0  0  0  0
    5.4667   -4.8038    0.0915 C   0  0  0  0  0  0  0  0  0  0  0  0
    4.3364   -5.5938    0.6049 N   0  0  0  0  0  0  0  0  0  0  0  0
    3.0733   -5.1563    0.5652 C   0  0  0  0  0  0  0  0  0  0  0  0
    2.7149   -4.0715    0.1121 O   0  0  0  0  0  0  0  0  0  0  0  0
    1.9172   -6.2560    1.2317 S   0  0  0  0  0  0  0  0  0  0  0  0
    3.2200   -7.3935    1.5903 C   0  0  0  0  0  0  0  0  0  0  0  0
    3.1162   -8.6070    2.1744 C   0  0  0  0  0  0  0  0  0  0  0  0
    1.9601   -9.3057    2.6448 C   0  0  0  0  0  0  0  0  0  0  0  0
    1.7934  -10.4870    3.3150 C   0  0  0  0  0  0  0  0  0  0  0  0
    0.3958  -10.6353    3.5241 C   0  0  0  0  0  0  0  0  0  0  0  0
   -0.1958   -9.5378    2.9641 C   0  0  0  0  0  0  0  0  0  0  0  0
   -1.6033   -9.0660    2.8228 C   0  0  0  0  0  0  0  0  0  0  0  0
    0.7489   -8.7175    2.4396 O   0  0  0  0  0  0  0  0  0  0  0  0
    4.4949   -6.8154    1.1630 C   0  0  0  0  0  0  0  0  0  0  0  0
    5.5950   -7.3598    1.2901 O   0  0  0  0  0  0  0  0  0  0  0  0
    6.9580   -3.3774    0.7789 H   0  0  0  0  0  0  0  0  0  0  0  0
    6.4895   -4.5470    2.0061 H   0  0  0  0  0  0  0  0  0  0  0  0
    5.4052   -3.2200    1.5946 H   0  0  0  0  0  0  0  0  0  0  0  0
    5.1548   -4.1733   -0.7435 H   0  0  0  0  0  0  0  0  0  0  0  0
    6.2204   -5.4740   -0.3176 H   0  0  0  0  0  0  0  0  0  0  0  0
    4.0345   -9.1579    2.3109 H   0  0  0  0  0  0  0  0  0  0  0  0
    2.5766  -11.1625    3.6256 H   0  0  0  0  0  0  0  0  0  0  0  0
   -0.1175  -11.4404    4.0310 H   0  0  0  0  0  0  0  0  0  0  0  0
   -2.2944   -9.7732    3.2773 H   0  0  0  0  0  0  0  0  0  0  0  0
   -1.8707   -8.9577    1.7718 H   0  0  0  0  0  0  0  0  0  0  0  0
   -1.7389   -8.1031    3.3133 H   0  0  0  0  0  0  0  0  0  0  0  0
  1  2  1  0
  1 17  1  0
  1 18  1  0
  1 19  1  0
  2  3  1  0
  2 20  1  0
  2 21  1  0
  3 15  1  0
  3  4  1  0
  4  5  2  0
  4  6  1  0
  6  7  1  0
  7  8  2  3
  7 15  1  0
  8  9  1  0
  8 22  1  0
  9 14  1  0
  9 10  2  0
 10 11  1  0
 10 23  1  0
 11 12  2  0
 11 24  1  0
 12 13  1  0
 12 14  1  0
 13 25  1  0
 13 26  1  0
 13 27  1  0
 15 16  2  0
M  END
>  <i_m_ct_stereo_status>  (197) 
1

>  <s_m_source_file>  (197) 
/var/tmp/pbs.5076255.sched01/tmppxy1xzy0/80exjuxwr6.sdf

>  <i_m_source_file_index>  (197) 
14

>  <i_lp_mmshare_version>  (197) 
48012

>  <i_f3d_flags>  (197) 
0

>  <s_epik_input>  (197) 
W0NIM11bQ0gyXU4xQyg9TylTL0MoQzE9Tyk9W0NIXVxjMltjSF1bY0hdYyhvMilbQ0gzXQ==

>  <s_epik_cmdline>  (197) 
J2VwaWtfcHl0aG9uJywgJy1waHQnLCAnMi4wJywgJy1waCcsICc3LjAnLCAnLXRuJywgJzgnLCAnLW1hJywgJzIwMCcsICctaW1hZScsICc8aW5maWxlLm1hZT4nLCAnLW9tYWUnLCAnPG91dGZpbGUubWFlPic=

>  <r_lp_tautomer_probability>  (197) 
1

>  <r_epik_Ionization_Penalty>  (197) 
1.31558e-16

>  <r_epik_Ionization_Penalty_Charging>  (197) 
0

>  <r_epik_Ionization_Penalty_Neutral>  (197) 
1.31558e-16

>  <r_epik_State_Penalty>  (197) 
-0

>  <r_epik_Charging_Adjusted_Penalty>  (197) 
0

>  <i_epik_Tot_Q>  (197) 
0

>  <i_epik_Tot_abs_Q>  (197) 
0

>  <s_lp_Force_Field>  (197) 
OPLS3e

>  <r_lp_Energy>  (197) 
3.23717

>  <b_lp_Chiralities_Consistent>  (197) 
1

>  <s_lp_Variant>  (197) 
67:0-1

>  <s_i_glide_gridfile>  (197) 
pfpi4k_grid

>  <i_i_glide_lignum>  (197) 
14

>  <i_i_glide_rotatable_bonds>  (197) 
2

>  <r_i_docking_score>  (197) 
-3.00562

>  <r_i_glide_ligand_efficiency>  (197) 
-0.187852

>  <r_i_glide_ligand_efficiency_sa>  (197) 
-0.473356

>  <r_i_glide_ligand_efficiency_ln>  (197) 
-0.796701

>  <r_i_glide_gscore>  (197) 
-3.00562

>  <r_i_glide_lipo>  (197) 
-0.332432

>  <r_i_glide_hbond>  (197) 
0

>  <r_i_glide_metal>  (197) 
-0

>  <r_i_glide_rewards>  (197) 
-2.01533

>  <r_i_glide_evdw>  (197) 
-20.8151

>  <r_i_glide_ecoul>  (197) 
0.658023

>  <r_i_glide_erotb>  (197) 
0.306145

>  <r_i_glide_esite>  (197) 
-0.0219512

>  <r_i_glide_emodel>  (197) 
-23.9681

>  <r_i_glide_energy>  (197) 
-20.1571

>  <r_i_glide_einternal>  (197) 
0.154087

>  <r_i_glide_intrahb_reward>  (197) 
-0

>  <i_i_glide_confnum>  (197) 
2

>  <i_i_glide_posenum>  (197) 
35

>  <r_i_glide_eff_state_penalty>  (197) 
0

>  <ligand_id>  (197) 
67

>  <original_smiles>  (197) 
CCN1C(=O)SC(=Cc2ccc(C)o2)C1=O

>  <smiles>  (197) 
[H]C(=C1SC(=O)N(C([H])([H])C([H])([H])[H])C1=O)c1oc(C([H])([H])[H])c([H])c1[H]

$$$$
67:0:1
     RDKit          3D

 27 28  0  0  1  0  0  0  0  0999 V2000
    8.3380   -6.9039    2.6482 C   0  0  0  0  0  0  0  0  0  0  0  0
    7.5595   -7.2921    1.3807 C   0  0  0  0  0  0  0  0  0  0  0  0
    6.1564   -7.6284    1.6787 N   0  0  0  0  0  0  0  0  0  0  0  0
    5.6934   -8.8845    1.6739 C   0  0  0  0  0  0  0  0  0  0  0  0
    6.3774   -9.8785    1.4377 O   0  0  0  0  0  0  0  0  0  0  0  0
    4.0012   -9.0168    2.0196 S   0  0  0  0  0  0  0  0  0  0  0  0
    3.9036   -7.2596    2.1898 C   0  0  0  0  0  0  0  0  0  0  0  0
    2.8149   -6.5170    2.4893 C   0  0  0  0  0  0  0  0  0  0  0  0
    1.4614   -6.9172    2.7318 C   0  0  0  0  0  0  0  0  0  0  0  0
    0.3386   -6.2323    3.1117 C   0  0  0  0  0  0  0  0  0  0  0  0
   -0.7086   -7.1914    3.2009 C   0  0  0  0  0  0  0  0  0  0  0  0
   -0.1510   -8.3968    2.8775 C   0  0  0  0  0  0  0  0  0  0  0  0
   -0.6641   -9.7940    2.7804 C   0  0  0  0  0  0  0  0  0  0  0  0
    1.1668   -8.2386    2.5927 O   0  0  0  0  0  0  0  0  0  0  0  0
    5.2282   -6.6835    1.9507 C   0  0  0  0  0  0  0  0  0  0  0  0
    5.4864   -5.4757    1.9862 O   0  0  0  0  0  0  0  0  0  0  0  0
    9.3702   -6.6509    2.4092 H   0  0  0  0  0  0  0  0  0  0  0  0
    8.3584   -7.7231    3.3662 H   0  0  0  0  0  0  0  0  0  0  0  0
    7.9017   -6.0348    3.1406 H   0  0  0  0  0  0  0  0  0  0  0  0
    7.5874   -6.4693    0.6637 H   0  0  0  0  0  0  0  0  0  0  0  0
    8.0775   -8.1143    0.8839 H   0  0  0  0  0  0  0  0  0  0  0  0
    2.9653   -5.4493    2.5490 H   0  0  0  0  0  0  0  0  0  0  0  0
    0.2863   -5.1733    3.3125 H   0  0  0  0  0  0  0  0  0  0  0  0
   -1.7416   -7.0429    3.4817 H   0  0  0  0  0  0  0  0  0  0  0  0
   -1.7259   -9.8368    3.0191 H   0  0  0  0  0  0  0  0  0  0  0  0
   -0.1329  -10.4522    3.4674 H   0  0  0  0  0  0  0  0  0  0  0  0
   -0.5330  -10.1887    1.7749 H   0  0  0  0  0  0  0  0  0  0  0  0
  1  2  1  0
  1 17  1  0
  1 18  1  0
  1 19  1  0
  2  3  1  0
  2 20  1  0
  2 21  1  0
  3 15  1  0
  3  4  1  0
  4  5  2  0
  4  6  1  0
  6  7  1  0
  7  8  2  3
  7 15  1  0
  8  9  1  0
  8 22  1  0
  9 14  1  0
  9 10  2  0
 10 11  1  0
 10 23  1  0
 11 12  2  0
 11 24  1  0
 12 13  1  0
 12 14  1  0
 13 25  1  0
 13 26  1  0
 13 27  1  0
 15 16  2  0
M  END
>  <i_m_ct_stereo_status>  (198) 
1

>  <s_m_source_file>  (198) 
/var/tmp/pbs.5076255.sched01/tmppxy1xzy0/80exjuxwr6.sdf

>  <i_m_source_file_index>  (198) 
14

>  <i_lp_mmshare_version>  (198) 
48012

>  <i_f3d_flags>  (198) 
0

>  <s_epik_input>  (198) 
W0NIM11bQ0gyXU4xQyg9TylTL0MoQzE9Tyk9W0NIXVxjMltjSF1bY0hdYyhvMilbQ0gzXQ==

>  <s_epik_cmdline>  (198) 
J2VwaWtfcHl0aG9uJywgJy1waHQnLCAnMi4wJywgJy1waCcsICc3LjAnLCAnLXRuJywgJzgnLCAnLW1hJywgJzIwMCcsICctaW1hZScsICc8aW5maWxlLm1hZT4nLCAnLW9tYWUnLCAnPG91dGZpbGUubWFlPic=

>  <r_lp_tautomer_probability>  (198) 
1

>  <r_epik_Ionization_Penalty>  (198) 
1.31558e-16

>  <r_epik_Ionization_Penalty_Charging>  (198) 
0

>  <r_epik_Ionization_Penalty_Neutral>  (198) 
1.31558e-16

>  <r_epik_State_Penalty>  (198) 
-0

>  <r_epik_Charging_Adjusted_Penalty>  (198) 
0

>  <i_epik_Tot_Q>  (198) 
0

>  <i_epik_Tot_abs_Q>  (198) 
0

>  <s_lp_Force_Field>  (198) 
OPLS3e

>  <r_lp_Energy>  (198) 
3.23717

>  <b_lp_Chiralities_Consistent>  (198) 
1

>  <s_lp_Variant>  (198) 
67:0-1

>  <s_i_glide_gridfile>  (198) 
pfpi4k_grid

>  <i_i_glide_lignum>  (198) 
14

>  <i_i_glide_rotatable_bonds>  (198) 
2

>  <r_i_docking_score>  (198) 
-2.93545

>  <r_i_glide_ligand_efficiency>  (198) 
-0.183465

>  <r_i_glide_ligand_efficiency_sa>  (198) 
-0.462304

>  <r_i_glide_ligand_efficiency_ln>  (198) 
-0.778099

>  <r_i_glide_gscore>  (198) 
-2.93545

>  <r_i_glide_lipo>  (198) 
-0.0155254

>  <r_i_glide_hbond>  (198) 
0

>  <r_i_glide_metal>  (198) 
-0

>  <r_i_glide_rewards>  (198) 
-2.00121

>  <r_i_glide_evdw>  (198) 
-19.2991

>  <r_i_glide_ecoul>  (198) 
-1.73266

>  <r_i_glide_erotb>  (198) 
0.306145

>  <r_i_glide_esite>  (198) 
0

>  <r_i_glide_emodel>  (198) 
-24.5579

>  <r_i_glide_energy>  (198) 
-21.0317

>  <r_i_glide_einternal>  (198) 
0.437215

>  <r_i_glide_intrahb_reward>  (198) 
-0

>  <i_i_glide_confnum>  (198) 
2

>  <i_i_glide_posenum>  (198) 
2

>  <r_i_glide_eff_state_penalty>  (198) 
0

>  <ligand_id>  (198) 
67

>  <original_smiles>  (198) 
CCN1C(=O)SC(=Cc2ccc(C)o2)C1=O

>  <smiles>  (198) 
[H]C(=C1SC(=O)N(C([H])([H])C([H])([H])[H])C1=O)c1oc(C([H])([H])[H])c([H])c1[H]

$$$$
67:0:2
     RDKit          3D

 27 28  0  0  1  0  0  0  0  0999 V2000
    0.4297   -9.8475    5.3887 C   0  0  0  0  0  0  0  0  0  0  0  0
    0.5242  -10.1459    3.8839 C   0  0  0  0  0  0  0  0  0  0  0  0
    0.8275   -8.9396    3.0986 N   0  0  0  0  0  0  0  0  0  0  0  0
   -0.1127   -8.2252    2.4693 C   0  0  0  0  0  0  0  0  0  0  0  0
   -1.3204   -8.4602    2.4873 O   0  0  0  0  0  0  0  0  0  0  0  0
    0.5033   -6.8721    1.5816 S   0  0  0  0  0  0  0  0  0  0  0  0
    2.1362   -7.2695    2.1140 C   0  0  0  0  0  0  0  0  0  0  0  0
    3.2739   -6.5957    1.8439 C   0  0  0  0  0  0  0  0  0  0  0  0
    3.4956   -5.4412    1.0255 C   0  0  0  0  0  0  0  0  0  0  0  0
    4.5176   -4.5327    0.9627 C   0  0  0  0  0  0  0  0  0  0  0  0
    4.1503   -3.5807   -0.0275 C   0  0  0  0  0  0  0  0  0  0  0  0
    2.9256   -3.9673   -0.4948 C   0  0  0  0  0  0  0  0  0  0  0  0
    1.9965   -3.4543   -1.5447 C   0  0  0  0  0  0  0  0  0  0  0  0
    2.5068   -5.0843    0.1577 O   0  0  0  0  0  0  0  0  0  0  0  0
    2.0870   -8.4661    2.9573 C   0  0  0  0  0  0  0  0  0  0  0  0
    3.0714   -8.9894    3.4872 O   0  0  0  0  0  0  0  0  0  0  0  0
    0.2139  -10.7608    5.9438 H   0  0  0  0  0  0  0  0  0  0  0  0
   -0.3672   -9.1354    5.6043 H   0  0  0  0  0  0  0  0  0  0  0  0
    1.3630   -9.4408    5.7797 H   0  0  0  0  0  0  0  0  0  0  0  0
    1.2933  -10.9014    3.7092 H   0  0  0  0  0  0  0  0  0  0  0  0
   -0.4050  -10.6078    3.5500 H   0  0  0  0  0  0  0  0  0  0  0  0
    4.1800   -6.9995    2.2684 H   0  0  0  0  0  0  0  0  0  0  0  0
    5.4184   -4.5464    1.5570 H   0  0  0  0  0  0  0  0  0  0  0  0
    4.7054   -2.7164   -0.3643 H   0  0  0  0  0  0  0  0  0  0  0  0
    2.3924   -2.5505   -2.0101 H   0  0  0  0  0  0  0  0  0  0  0  0
    1.0259   -3.2183   -1.1221 H   0  0  0  0  0  0  0  0  0  0  0  0
    1.8219   -4.1980   -2.3199 H   0  0  0  0  0  0  0  0  0  0  0  0
  1  2  1  0
  1 17  1  0
  1 18  1  0
  1 19  1  0
  2  3  1  0
  2 20  1  0
  2 21  1  0
  3 15  1  0
  3  4  1  0
  4  5  2  0
  4  6  1  0
  6  7  1  0
  7  8  2  3
  7 15  1  0
  8  9  1  0
  8 22  1  0
  9 14  1  0
  9 10  2  0
 10 11  1  0
 10 23  1  0
 11 12  2  0
 11 24  1  0
 12 13  1  0
 12 14  1  0
 13 25  1  0
 13 26  1  0
 13 27  1  0
 15 16  2  0
M  END
>  <i_m_ct_stereo_status>  (199) 
1

>  <s_m_source_file>  (199) 
/var/tmp/pbs.5076255.sched01/tmppxy1xzy0/80exjuxwr6.sdf

>  <i_m_source_file_index>  (199) 
14

>  <i_lp_mmshare_version>  (199) 
48012

>  <i_f3d_flags>  (199) 
0

>  <s_epik_input>  (199) 
W0NIM11bQ0gyXU4xQyg9TylTL0MoQzE9Tyk9W0NIXVxjMltjSF1bY0hdYyhvMilbQ0gzXQ==

>  <s_epik_cmdline>  (199) 
J2VwaWtfcHl0aG9uJywgJy1waHQnLCAnMi4wJywgJy1waCcsICc3LjAnLCAnLXRuJywgJzgnLCAnLW1hJywgJzIwMCcsICctaW1hZScsICc8aW5maWxlLm1hZT4nLCAnLW9tYWUnLCAnPG91dGZpbGUubWFlPic=

>  <r_lp_tautomer_probability>  (199) 
1

>  <r_epik_Ionization_Penalty>  (199) 
1.31558e-16

>  <r_epik_Ionization_Penalty_Charging>  (199) 
0

>  <r_epik_Ionization_Penalty_Neutral>  (199) 
1.31558e-16

>  <r_epik_State_Penalty>  (199) 
-0

>  <r_epik_Charging_Adjusted_Penalty>  (199) 
0

>  <i_epik_Tot_Q>  (199) 
0

>  <i_epik_Tot_abs_Q>  (199) 
0

>  <s_lp_Force_Field>  (199) 
OPLS3e

>  <r_lp_Energy>  (199) 
3.23717

>  <b_lp_Chiralities_Consistent>  (199) 
1

>  <s_lp_Variant>  (199) 
67:0-1

>  <s_i_glide_gridfile>  (199) 
pfpi4k_grid

>  <i_i_glide_lignum>  (199) 
14

>  <i_i_glide_rotatable_bonds>  (199) 
2

>  <r_i_docking_score>  (199) 
-2.79065

>  <r_i_glide_ligand_efficiency>  (199) 
-0.174416

>  <r_i_glide_ligand_efficiency_sa>  (199) 
-0.4395

>  <r_i_glide_ligand_efficiency_ln>  (199) 
-0.739718

>  <r_i_glide_gscore>  (199) 
-2.79065

>  <r_i_glide_lipo>  (199) 
-0.148822

>  <r_i_glide_hbond>  (199) 
0

>  <r_i_glide_metal>  (199) 
-0

>  <r_i_glide_rewards>  (199) 
-1.7913

>  <r_i_glide_evdw>  (199) 
-19.9718

>  <r_i_glide_ecoul>  (199) 
-0.580368

>  <r_i_glide_erotb>  (199) 
0.306145

>  <r_i_glide_esite>  (199) 
-0.0710308

>  <r_i_glide_emodel>  (199) 
-23.7286

>  <r_i_glide_energy>  (199) 
-20.5521

>  <r_i_glide_einternal>  (199) 
0.859255

>  <r_i_glide_intrahb_reward>  (199) 
-0

>  <i_i_glide_confnum>  (199) 
2

>  <i_i_glide_posenum>  (199) 
3

>  <r_i_glide_eff_state_penalty>  (199) 
0

>  <ligand_id>  (199) 
67

>  <original_smiles>  (199) 
CCN1C(=O)SC(=Cc2ccc(C)o2)C1=O

>  <smiles>  (199) 
[H]C(=C1SC(=O)N(C([H])([H])C([H])([H])[H])C1=O)c1oc(C([H])([H])[H])c([H])c1[H]

$$$$
67:1:0
     RDKit          3D

 27 28  0  0  1  0  0  0  0  0999 V2000
   -1.7604    3.4056    7.5044 C   0  0  0  0  0  0  0  0  0  0  0  0
   -2.6940    2.7190    6.4932 C   0  0  0  0  0  0  0  0  0  0  0  0
   -1.9396    2.2140    5.3296 N   0  0  0  0  0  0  0  0  0  0  0  0
   -1.7285    2.9087    4.2009 C   0  0  0  0  0  0  0  0  0  0  0  0
   -2.1257    4.0558    4.0164 O   0  0  0  0  0  0  0  0  0  0  0  0
   -0.8347    2.0318    2.9970 S   0  0  0  0  0  0  0  0  0  0  0  0
   -0.7246    0.6400    4.0758 C   0  0  0  0  0  0  0  0  0  0  0  0
   -0.1106   -0.5222    3.7322 C   0  0  0  0  0  0  0  0  0  0  0  0
    0.0543   -1.7900    4.3982 C   0  0  0  0  0  0  0  0  0  0  0  0
    0.7557   -2.9374    4.0918 C   0  0  0  0  0  0  0  0  0  0  0  0
    0.5397   -3.8478    5.1627 C   0  0  0  0  0  0  0  0  0  0  0  0
   -0.2824   -3.2029    6.0495 C   0  0  0  0  0  0  0  0  0  0  0  0
   -0.8885   -3.5275    7.3695 C   0  0  0  0  0  0  0  0  0  0  0  0
   -0.6045   -1.9790    5.5660 O   0  0  0  0  0  0  0  0  0  0  0  0
   -1.4151    0.9795    5.3374 C   0  0  0  0  0  0  0  0  0  0  0  0
   -1.5547    0.2598    6.3317 O   0  0  0  0  0  0  0  0  0  0  0  0
   -2.3204    3.7428    8.3783 H   0  0  0  0  0  0  0  0  0  0  0  0
   -1.2715    4.2619    7.0517 H   0  0  0  0  0  0  0  0  0  0  0  0
   -0.9775    2.7289    7.8542 H   0  0  0  0  0  0  0  0  0  0  0  0
   -3.2117    1.9055    7.0074 H   0  0  0  0  0  0  0  0  0  0  0  0
   -3.4993    3.3815    6.1806 H   0  0  0  0  0  0  0  0  0  0  0  0
    0.3197   -0.5195    2.7422 H   0  0  0  0  0  0  0  0  0  0  0  0
    1.3400   -3.0728    3.1974 H   0  0  0  0  0  0  0  0  0  0  0  0
    0.9199   -4.8487    5.3045 H   0  0  0  0  0  0  0  0  0  0  0  0
   -0.6156   -4.5260    7.7034 H   0  0  0  0  0  0  0  0  0  0  0  0
   -1.9746   -3.4676    7.3062 H   0  0  0  0  0  0  0  0  0  0  0  0
   -0.5517   -2.8141    8.1244 H   0  0  0  0  0  0  0  0  0  0  0  0
  1  2  1  0
  1 17  1  0
  1 18  1  0
  1 19  1  0
  2  3  1  0
  2 20  1  0
  2 21  1  0
  3 15  1  0
  3  4  1  0
  4  5  2  0
  4  6  1  0
  6  7  1  0
  7  8  2  3
  7 15  1  0
  8  9  1  0
  8 22  1  0
  9 14  1  0
  9 10  2  0
 10 11  1  0
 10 23  1  0
 11 12  2  0
 11 24  1  0
 12 13  1  0
 12 14  1  0
 13 25  1  0
 13 26  1  0
 13 27  1  0
 15 16  2  0
M  END
>  <i_m_ct_stereo_status>  (200) 
1

>  <s_m_source_file>  (200) 
/var/tmp/pbs.5076255.sched01/tmppxy1xzy0/80exjuxwr6.sdf

>  <i_m_source_file_index>  (200) 
15

>  <i_lp_mmshare_version>  (200) 
48012

>  <i_f3d_flags>  (200) 
0

>  <s_epik_input>  (200) 
W0NIM11bQ0gyXU4xQyg9TylTL0MoQzE9Tyk9W0NIXVxjMltjSF1bY0hdYyhvMilbQ0gzXQ==

>  <s_epik_cmdline>  (200) 
J2VwaWtfcHl0aG9uJywgJy1waHQnLCAnMi4wJywgJy1waCcsICc3LjAnLCAnLXRuJywgJzgnLCAnLW1hJywgJzIwMCcsICctaW1hZScsICc8aW5maWxlLm1hZT4nLCAnLW9tYWUnLCAnPG91dGZpbGUubWFlPic=

>  <r_lp_tautomer_probability>  (200) 
1

>  <r_epik_Ionization_Penalty>  (200) 
1.31558e-16

>  <r_epik_Ionization_Penalty_Charging>  (200) 
0

>  <r_epik_Ionization_Penalty_Neutral>  (200) 
1.31558e-16

>  <r_epik_State_Penalty>  (200) 
-0

>  <r_epik_Charging_Adjusted_Penalty>  (200) 
0

>  <i_epik_Tot_Q>  (200) 
0

>  <i_epik_Tot_abs_Q>  (200) 
0

>  <s_lp_Force_Field>  (200) 
OPLS3e

>  <r_lp_Energy>  (200) 
6.72158

>  <b_lp_Chiralities_Consistent>  (200) 
1

>  <s_lp_Variant>  (200) 
67:0-2

>  <s_i_glide_gridfile>  (200) 
pfpi4k_grid

>  <i_i_glide_lignum>  (200) 
15

>  <i_i_glide_rotatable_bonds>  (200) 
2

>  <r_i_docking_score>  (200) 
-3.74347

>  <r_i_glide_ligand_efficiency>  (200) 
-0.233967

>  <r_i_glide_ligand_efficiency_sa>  (200) 
-0.58956

>  <r_i_glide_ligand_efficiency_ln>  (200) 
-0.992282

>  <r_i_glide_gscore>  (200) 
-3.74347

>  <r_i_glide_lipo>  (200) 
-0.259624

>  <r_i_glide_hbond>  (200) 
-0.207847

>  <r_i_glide_metal>  (200) 
-0

>  <r_i_glide_rewards>  (200) 
-1.7913

>  <r_i_glide_evdw>  (200) 
-18.4852

>  <r_i_glide_ecoul>  (200) 
-5.36771

>  <r_i_glide_erotb>  (200) 
0.306145

>  <r_i_glide_esite>  (200) 
-0.0614283

>  <r_i_glide_emodel>  (200) 
-29.6245

>  <r_i_glide_energy>  (200) 
-23.853

>  <r_i_glide_einternal>  (200) 
0.186948

>  <r_i_glide_intrahb_reward>  (200) 
-0

>  <i_i_glide_confnum>  (200) 
4

>  <i_i_glide_posenum>  (200) 
12

>  <r_i_glide_eff_state_penalty>  (200) 
0

>  <ligand_id>  (200) 
67

>  <original_smiles>  (200) 
CCN1C(=O)SC(=Cc2ccc(C)o2)C1=O

>  <smiles>  (200) 
[H]C(=C1SC(=O)N(C([H])([H])C([H])([H])[H])C1=O)c1oc(C([H])([H])[H])c([H])c1[H]

$$$$
67:1:1
     RDKit          3D

 27 28  0  0  1  0  0  0  0  0999 V2000
    3.0509   -2.8071   -3.6435 C   0  0  0  0  0  0  0  0  0  0  0  0
    2.7508   -2.3207   -2.2276 C   0  0  0  0  0  0  0  0  0  0  0  0
    3.7015   -2.8590   -1.2356 N   0  0  0  0  0  0  0  0  0  0  0  0
    4.9484   -2.4238   -1.0611 C   0  0  0  0  0  0  0  0  0  0  0  0
    5.4743   -1.5161   -1.7137 O   0  0  0  0  0  0  0  0  0  0  0  0
    5.8187   -3.2315    0.2027 S   0  0  0  0  0  0  0  0  0  0  0  0
    4.4124   -4.2439    0.5404 C   0  0  0  0  0  0  0  0  0  0  0  0
    4.3809   -5.2166    1.4870 C   0  0  0  0  0  0  0  0  0  0  0  0
    3.3762   -6.1628    1.9152 C   0  0  0  0  0  0  0  0  0  0  0  0
    3.3348   -7.1132    2.8948 C   0  0  0  0  0  0  0  0  0  0  0  0
    2.0445   -7.7282    2.8205 C   0  0  0  0  0  0  0  0  0  0  0  0
    1.3885   -7.1111    1.7985 C   0  0  0  0  0  0  0  0  0  0  0  0
    0.0343   -7.2145    1.1708 C   0  0  0  0  0  0  0  0  0  0  0  0
    2.2003   -6.1836    1.2474 O   0  0  0  0  0  0  0  0  0  0  0  0
    3.3330   -3.8324   -0.3697 C   0  0  0  0  0  0  0  0  0  0  0  0
    2.1900   -4.2620   -0.3758 O   0  0  0  0  0  0  0  0  0  0  0  0
    2.3152   -2.4001   -4.3322 H   0  0  0  0  0  0  0  0  0  0  0  0
    2.9904   -3.8927   -3.7003 H   0  0  0  0  0  0  0  0  0  0  0  0
    4.0438   -2.5016   -3.9597 H   0  0  0  0  0  0  0  0  0  0  0  0
    2.7372   -1.2295   -2.1707 H   0  0  0  0  0  0  0  0  0  0  0  0
    1.7256   -2.6494   -2.0309 H   0  0  0  0  0  0  0  0  0  0  0  0
    5.3027   -5.3213    2.0369 H   0  0  0  0  0  0  0  0  0  0  0  0
    4.1339   -7.3413    3.5774 H   0  0  0  0  0  0  0  0  0  0  0  0
    1.6303   -8.5241    3.4244 H   0  0  0  0  0  0  0  0  0  0  0  0
   -0.5670   -7.9850    1.6477 H   0  0  0  0  0  0  0  0  0  0  0  0
    0.1306   -7.4551    0.1154 H   0  0  0  0  0  0  0  0  0  0  0  0
   -0.4935   -6.2687    1.2333 H   0  0  0  0  0  0  0  0  0  0  0  0
  1  2  1  0
  1 17  1  0
  1 18  1  0
  1 19  1  0
  2  3  1  0
  2 20  1  0
  2 21  1  0
  3 15  1  0
  3  4  1  0
  4  5  2  0
  4  6  1  0
  6  7  1  0
  7  8  2  3
  7 15  1  0
  8  9  1  0
  8 22  1  0
  9 14  1  0
  9 10  2  0
 10 11  1  0
 10 23  1  0
 11 12  2  0
 11 24  1  0
 12 13  1  0
 12 14  1  0
 13 25  1  0
 13 26  1  0
 13 27  1  0
 15 16  2  0
M  END
>  <i_m_ct_stereo_status>  (201) 
1

>  <s_m_source_file>  (201) 
/var/tmp/pbs.5076255.sched01/tmppxy1xzy0/80exjuxwr6.sdf

>  <i_m_source_file_index>  (201) 
15

>  <i_lp_mmshare_version>  (201) 
48012

>  <i_f3d_flags>  (201) 
0

>  <s_epik_input>  (201) 
W0NIM11bQ0gyXU4xQyg9TylTL0MoQzE9Tyk9W0NIXVxjMltjSF1bY0hdYyhvMilbQ0gzXQ==

>  <s_epik_cmdline>  (201) 
J2VwaWtfcHl0aG9uJywgJy1waHQnLCAnMi4wJywgJy1waCcsICc3LjAnLCAnLXRuJywgJzgnLCAnLW1hJywgJzIwMCcsICctaW1hZScsICc8aW5maWxlLm1hZT4nLCAnLW9tYWUnLCAnPG91dGZpbGUubWFlPic=

>  <r_lp_tautomer_probability>  (201) 
1

>  <r_epik_Ionization_Penalty>  (201) 
1.31558e-16

>  <r_epik_Ionization_Penalty_Charging>  (201) 
0

>  <r_epik_Ionization_Penalty_Neutral>  (201) 
1.31558e-16

>  <r_epik_State_Penalty>  (201) 
-0

>  <r_epik_Charging_Adjusted_Penalty>  (201) 
0

>  <i_epik_Tot_Q>  (201) 
0

>  <i_epik_Tot_abs_Q>  (201) 
0

>  <s_lp_Force_Field>  (201) 
OPLS3e

>  <r_lp_Energy>  (201) 
6.72158

>  <b_lp_Chiralities_Consistent>  (201) 
1

>  <s_lp_Variant>  (201) 
67:0-2

>  <s_i_glide_gridfile>  (201) 
pfpi4k_grid

>  <i_i_glide_lignum>  (201) 
15

>  <i_i_glide_rotatable_bonds>  (201) 
2

>  <r_i_docking_score>  (201) 
-3.13058

>  <r_i_glide_ligand_efficiency>  (201) 
-0.195661

>  <r_i_glide_ligand_efficiency_sa>  (201) 
-0.493035

>  <r_i_glide_ligand_efficiency_ln>  (201) 
-0.829822

>  <r_i_glide_gscore>  (201) 
-3.13058

>  <r_i_glide_lipo>  (201) 
-0.375606

>  <r_i_glide_hbond>  (201) 
0

>  <r_i_glide_metal>  (201) 
-0

>  <r_i_glide_rewards>  (201) 
-1.7913

>  <r_i_glide_evdw>  (201) 
-20.6286

>  <r_i_glide_ecoul>  (201) 
-1.31332

>  <r_i_glide_erotb>  (201) 
0.306145

>  <r_i_glide_esite>  (201) 
-0.0413859

>  <r_i_glide_emodel>  (201) 
-26.3565

>  <r_i_glide_energy>  (201) 
-21.9419

>  <r_i_glide_einternal>  (201) 
0.517358

>  <r_i_glide_intrahb_reward>  (201) 
-0

>  <i_i_glide_confnum>  (201) 
2

>  <i_i_glide_posenum>  (201) 
8

>  <r_i_glide_eff_state_penalty>  (201) 
0

>  <ligand_id>  (201) 
67

>  <original_smiles>  (201) 
CCN1C(=O)SC(=Cc2ccc(C)o2)C1=O

>  <smiles>  (201) 
[H]C(=C1SC(=O)N(C([H])([H])C([H])([H])[H])C1=O)c1oc(C([H])([H])[H])c([H])c1[H]

$$$$
67:1:2
     RDKit          3D

 27 28  0  0  1  0  0  0  0  0999 V2000
    3.0551   -3.2632   -3.9359 C   0  0  0  0  0  0  0  0  0  0  0  0
    2.3751   -2.7995   -2.6484 C   0  0  0  0  0  0  0  0  0  0  0  0
    3.3116   -2.7325   -1.5083 N   0  0  0  0  0  0  0  0  0  0  0  0
    4.3338   -1.8765   -1.4077 C   0  0  0  0  0  0  0  0  0  0  0  0
    4.6502   -1.0503   -2.2733 O   0  0  0  0  0  0  0  0  0  0  0  0
    5.2266   -2.0087    0.0787 S   0  0  0  0  0  0  0  0  0  0  0  0
    4.1554   -3.3039    0.6131 C   0  0  0  0  0  0  0  0  0  0  0  0
    4.2737   -3.9608    1.7954 C   0  0  0  0  0  0  0  0  0  0  0  0
    3.5429   -5.0440    2.4115 C   0  0  0  0  0  0  0  0  0  0  0  0
    3.5966   -5.6374    3.6445 C   0  0  0  0  0  0  0  0  0  0  0  0
    2.5883   -6.6542    3.6641 C   0  0  0  0  0  0  0  0  0  0  0  0
    1.9854   -6.6097    2.4395 C   0  0  0  0  0  0  0  0  0  0  0  0
    0.8651   -7.3473    1.7724 C   0  0  0  0  0  0  0  0  0  0  0  0
    2.5776   -5.6583    1.6802 O   0  0  0  0  0  0  0  0  0  0  0  0
    3.1347   -3.5183   -0.4262 C   0  0  0  0  0  0  0  0  0  0  0  0
    2.1968   -4.2930   -0.3604 O   0  0  0  0  0  0  0  0  0  0  0  0
    2.3033   -3.3102   -4.7216 H   0  0  0  0  0  0  0  0  0  0  0  0
    3.4918   -4.2524   -3.8286 H   0  0  0  0  0  0  0  0  0  0  0  0
    3.8401   -2.5799   -4.2454 H   0  0  0  0  0  0  0  0  0  0  0  0
    1.9092   -1.8281   -2.7713 H   0  0  0  0  0  0  0  0  0  0  0  0
    1.5210   -3.4661   -2.4870 H   0  0  0  0  0  0  0  0  0  0  0  0
    5.0976   -3.6223    2.4035 H   0  0  0  0  0  0  0  0  0  0  0  0
    4.2827   -5.3748    4.4381 H   0  0  0  0  0  0  0  0  0  0  0  0
    2.3255   -7.3377    4.4626 H   0  0  0  0  0  0  0  0  0  0  0  0
    0.4424   -8.1084    2.4259 H   0  0  0  0  0  0  0  0  0  0  0  0
    1.2152   -7.8400    0.8668 H   0  0  0  0  0  0  0  0  0  0  0  0
    0.0674   -6.6635    1.4810 H   0  0  0  0  0  0  0  0  0  0  0  0
  1  2  1  0
  1 17  1  0
  1 18  1  0
  1 19  1  0
  2  3  1  0
  2 20  1  0
  2 21  1  0
  3 15  1  0
  3  4  1  0
  4  5  2  0
  4  6  1  0
  6  7  1  0
  7  8  2  3
  7 15  1  0
  8  9  1  0
  8 22  1  0
  9 14  1  0
  9 10  2  0
 10 11  1  0
 10 23  1  0
 11 12  2  0
 11 24  1  0
 12 13  1  0
 12 14  1  0
 13 25  1  0
 13 26  1  0
 13 27  1  0
 15 16  2  0
M  END
>  <i_m_ct_stereo_status>  (202) 
1

>  <s_m_source_file>  (202) 
/var/tmp/pbs.5076255.sched01/tmppxy1xzy0/80exjuxwr6.sdf

>  <i_m_source_file_index>  (202) 
15

>  <i_lp_mmshare_version>  (202) 
48012

>  <i_f3d_flags>  (202) 
0

>  <s_epik_input>  (202) 
W0NIM11bQ0gyXU4xQyg9TylTL0MoQzE9Tyk9W0NIXVxjMltjSF1bY0hdYyhvMilbQ0gzXQ==

>  <s_epik_cmdline>  (202) 
J2VwaWtfcHl0aG9uJywgJy1waHQnLCAnMi4wJywgJy1waCcsICc3LjAnLCAnLXRuJywgJzgnLCAnLW1hJywgJzIwMCcsICctaW1hZScsICc8aW5maWxlLm1hZT4nLCAnLW9tYWUnLCAnPG91dGZpbGUubWFlPic=

>  <r_lp_tautomer_probability>  (202) 
1

>  <r_epik_Ionization_Penalty>  (202) 
1.31558e-16

>  <r_epik_Ionization_Penalty_Charging>  (202) 
0

>  <r_epik_Ionization_Penalty_Neutral>  (202) 
1.31558e-16

>  <r_epik_State_Penalty>  (202) 
-0

>  <r_epik_Charging_Adjusted_Penalty>  (202) 
0

>  <i_epik_Tot_Q>  (202) 
0

>  <i_epik_Tot_abs_Q>  (202) 
0

>  <s_lp_Force_Field>  (202) 
OPLS3e

>  <r_lp_Energy>  (202) 
6.72158

>  <b_lp_Chiralities_Consistent>  (202) 
1

>  <s_lp_Variant>  (202) 
67:0-2

>  <s_i_glide_gridfile>  (202) 
pfpi4k_grid

>  <i_i_glide_lignum>  (202) 
15

>  <i_i_glide_rotatable_bonds>  (202) 
2

>  <r_i_docking_score>  (202) 
-2.86433

>  <r_i_glide_ligand_efficiency>  (202) 
-0.179021

>  <r_i_glide_ligand_efficiency_sa>  (202) 
-0.451104

>  <r_i_glide_ligand_efficiency_ln>  (202) 
-0.759248

>  <r_i_glide_gscore>  (202) 
-2.86433

>  <r_i_glide_lipo>  (202) 
-0.131455

>  <r_i_glide_hbond>  (202) 
0

>  <r_i_glide_metal>  (202) 
-0

>  <r_i_glide_rewards>  (202) 
-1.82767

>  <r_i_glide_evdw>  (202) 
-20.5014

>  <r_i_glide_ecoul>  (202) 
-0.828877

>  <r_i_glide_erotb>  (202) 
0.306145

>  <r_i_glide_esite>  (202) 
-0.0619503

>  <r_i_glide_emodel>  (202) 
-24.7641

>  <r_i_glide_energy>  (202) 
-21.3303

>  <r_i_glide_einternal>  (202) 
1.27025

>  <r_i_glide_intrahb_reward>  (202) 
-0

>  <i_i_glide_confnum>  (202) 
4

>  <i_i_glide_posenum>  (202) 
2

>  <r_i_glide_eff_state_penalty>  (202) 
0

>  <ligand_id>  (202) 
67

>  <original_smiles>  (202) 
CCN1C(=O)SC(=Cc2ccc(C)o2)C1=O

>  <smiles>  (202) 
[H]C(=C1SC(=O)N(C([H])([H])C([H])([H])[H])C1=O)c1oc(C([H])([H])[H])c([H])c1[H]

$$$$
68:0:0
     RDKit          3D

 37 40  0  0  1  0  0  0  0  0999 V2000
    1.4901   -1.4273    2.8572 C   0  0  0  0  0  0  0  0  0  0  0  0
    1.6420    0.0489    2.8654 C   0  0  0  0  0  0  0  0  0  0  0  0
    2.6180    0.8875    2.4376 C   0  0  0  0  0  0  0  0  0  0  0  0
    2.1539    2.2069    2.7351 C   0  0  0  0  0  0  0  0  0  0  0  0
    0.9369    2.0707    3.3353 C   0  0  0  0  0  0  0  0  0  0  0  0
   -0.0852    3.0404    3.8766 C   0  0  2  0  0  0  0  0  0  0  0  0
    0.3990    4.4058    3.7297 N   0  0  0  0  0  0  0  0  0  0  0  0
    1.5993    4.9671    4.1779 C   0  0  0  0  0  0  0  0  0  0  0  0
    2.3068    5.8091    3.4364 N   0  0  0  0  0  0  0  0  0  0  0  0
    3.4798    5.8232    4.1533 C   0  0  0  0  0  0  0  0  0  0  0  0
    3.5163    5.0578    5.2473 N   0  0  0  0  0  0  0  0  0  0  0  0
    2.2578    4.5439    5.2739 N   0  0  0  0  0  0  0  0  0  0  0  0
    1.6740    3.6829    6.2851 C   0  0  0  0  0  0  0  0  0  0  0  0
    2.4417    3.1335    7.0703 O   0  0  0  0  0  0  0  0  0  0  0  0
    0.1507    3.5742    6.4496 C   0  0  2  0  0  0  0  0  0  0  0  0
   -0.2533    3.0600    7.8572 C   0  0  0  0  0  0  0  0  0  0  0  0
   -1.7496    2.8548    7.9752 C   0  0  0  0  0  0  0  0  0  0  0  0
   -2.5601    2.7846    6.9056 C   0  0  0  0  0  0  0  0  0  0  0  0
   -2.0667    2.9040    5.4710 C   0  0  0  0  0  0  0  0  0  0  0  0
   -0.5365    2.7477    5.3349 C   0  0  1  0  0  0  0  0  0  0  0  0
    0.6027    0.7518    3.4004 O   0  0  0  0  0  0  0  0  0  0  0  0
    2.3637   -1.8994    2.4149 H   0  0  0  0  0  0  0  0  0  0  0  0
    0.6179   -1.7002    2.2711 H   0  0  0  0  0  0  0  0  0  0  0  0
    1.3622   -1.7963    3.8693 H   0  0  0  0  0  0  0  0  0  0  0  0
    3.5495    0.6102    1.9618 H   0  0  0  0  0  0  0  0  0  0  0  0
    2.6742    3.1300    2.5166 H   0  0  0  0  0  0  0  0  0  0  0  0
   -0.9536    2.9522    3.2163 H   0  0  0  0  0  0  0  0  0  0  0  0
    0.1697    4.7528    2.8072 H   0  0  0  0  0  0  0  0  0  0  0  0
    4.3512    6.4032    3.8565 H   0  0  0  0  0  0  0  0  0  0  0  0
   -0.2114    4.6009    6.3932 H   0  0  0  0  0  0  0  0  0  0  0  0
    0.2462    2.1233    8.1185 H   0  0  0  0  0  0  0  0  0  0  0  0
    0.0400    3.7863    8.6141 H   0  0  0  0  0  0  0  0  0  0  0  0
   -2.1435    2.7479    8.9781 H   0  0  0  0  0  0  0  0  0  0  0  0
   -3.6247    2.6521    7.0359 H   0  0  0  0  0  0  0  0  0  0  0  0
   -2.5597    2.1394    4.8717 H   0  0  0  0  0  0  0  0  0  0  0  0
   -2.3922    3.8723    5.0852 H   0  0  0  0  0  0  0  0  0  0  0  0
   -0.3303    1.6994    5.5448 H   0  0  0  0  0  0  0  0  0  0  0  0
  1  2  1  0
  1 22  1  0
  1 23  1  0
  1 24  1  0
  2 21  1  0
  2  3  2  0
  3  4  1  0
  3 25  1  0
  4  5  2  0
  4 26  1  0
  5  6  1  0
  5 21  1  0
  6 20  1  0
  6  7  1  0
  6 27  1  6
  7  8  1  0
  7 28  1  0
  8 12  1  0
  8  9  2  0
  9 10  1  0
 10 11  2  0
 10 29  1  0
 11 12  1  0
 12 13  1  0
 13 14  2  0
 13 15  1  0
 15 20  1  0
 15 16  1  0
 15 30  1  1
 16 17  1  0
 16 31  1  0
 16 32  1  0
 17 18  2  0
 17 33  1  0
 18 19  1  0
 18 34  1  0
 19 20  1  0
 19 35  1  0
 19 36  1  0
 20 37  1  1
M  END
>  <i_m_ct_stereo_status>  (203) 
1

>  <s_m_source_file>  (203) 
/var/tmp/pbs.5076255.sched01/tmppxy1xzy0/80exjuxwr6.sdf

>  <i_m_source_file_index>  (203) 
16

>  <i_lp_mmshare_version>  (203) 
48012

>  <i_f3d_flags>  (203) 
0

>  <s_epik_input>  (203) 
W0NIM11jMVtjSF1bY0hdYyhvMSlbQ0BIXShbTkhdMilbQ0BIXShbQ0gyXVtDSF09W0NIXVtDSDJdMylbQ0BASF0zQyg9TyluKGMyNCluW2NIXW40

>  <s_epik_cmdline>  (203) 
J2VwaWtfcHl0aG9uJywgJy1waHQnLCAnMi4wJywgJy1waCcsICc3LjAnLCAnLXRuJywgJzgnLCAnLW1hJywgJzIwMCcsICctaW1hZScsICc8aW5maWxlLm1hZT4nLCAnLW9tYWUnLCAnPG91dGZpbGUubWFlPic=

>  <r_lp_tautomer_probability>  (203) 
1

>  <r_epik_Ionization_Penalty>  (203) 
0.000457432

>  <r_epik_Ionization_Penalty_Charging>  (203) 
0

>  <r_epik_Ionization_Penalty_Neutral>  (203) 
0.000457432

>  <r_epik_State_Penalty>  (203) 
-0

>  <r_epik_Charging_Adjusted_Penalty>  (203) 
0

>  <i_epik_Tot_Q>  (203) 
0

>  <i_epik_Tot_abs_Q>  (203) 
0

>  <s_lp_Force_Field>  (203) 
OPLS3e

>  <r_lp_Energy>  (203) 
20.9529

>  <b_lp_Chiralities_Consistent>  (203) 
1

>  <s_lp_Variant>  (203) 
68:0-1

>  <s_i_glide_gridfile>  (203) 
pfpi4k_grid

>  <i_i_glide_lignum>  (203) 
16

>  <i_i_glide_rotatable_bonds>  (203) 
1

>  <r_i_docking_score>  (203) 
-3.03752

>  <r_i_glide_ligand_efficiency>  (203) 
-0.144644

>  <r_i_glide_ligand_efficiency_sa>  (203) 
-0.399061

>  <r_i_glide_ligand_efficiency_ln>  (203) 
-0.75102

>  <r_i_glide_gscore>  (203) 
-3.03752

>  <r_i_glide_lipo>  (203) 
-0.190646

>  <r_i_glide_hbond>  (203) 
-0.13248

>  <r_i_glide_metal>  (203) 
-0

>  <r_i_glide_rewards>  (203) 
-1.48331

>  <r_i_glide_evdw>  (203) 
-19.4362

>  <r_i_glide_ecoul>  (203) 
-2.33006

>  <r_i_glide_erotb>  (203) 
0.224225

>  <r_i_glide_esite>  (203) 
-0.133992

>  <r_i_glide_emodel>  (203) 
-25.8841

>  <r_i_glide_energy>  (203) 
-21.7662

>  <r_i_glide_einternal>  (203) 
0.451663

>  <r_i_glide_intrahb_reward>  (203) 
-0

>  <i_i_glide_confnum>  (203) 
1

>  <i_i_glide_posenum>  (203) 
3

>  <r_i_glide_eff_state_penalty>  (203) 
0

>  <ligand_id>  (203) 
68

>  <original_smiles>  (203) 
Cc1ccc(C2Nc3ncnn3C(=O)C3CC=CCC32)o1

>  <smiles>  (203) 
[H]C1=C([H])C([H])([H])C2([H])C([H])(c3oc(C([H])([H])[H])c([H])c3[H])N([H])c3nc([H])nn3C(=O)C2([H])C1([H])[H]

$$$$
68:0:1
     RDKit          3D

 37 40  0  0  1  0  0  0  0  0999 V2000
   -0.3970   -1.0571    4.4845 C   0  0  0  0  0  0  0  0  0  0  0  0
    0.6254   -1.9871    3.9508 C   0  0  0  0  0  0  0  0  0  0  0  0
    1.5726   -1.8696    2.9844 C   0  0  0  0  0  0  0  0  0  0  0  0
    2.2472   -3.1258    2.9542 C   0  0  0  0  0  0  0  0  0  0  0  0
    1.6504   -3.9261    3.8884 C   0  0  0  0  0  0  0  0  0  0  0  0
    1.8746   -5.3375    4.3676 C   0  0  2  0  0  0  0  0  0  0  0  0
    3.1539   -5.8407    3.8932 N   0  0  0  0  0  0  0  0  0  0  0  0
    3.6598   -5.9277    2.5982 C   0  0  0  0  0  0  0  0  0  0  0  0
    4.9141   -5.6028    2.3016 N   0  0  0  0  0  0  0  0  0  0  0  0
    4.8094   -5.5269    0.9318 C   0  0  0  0  0  0  0  0  0  0  0  0
    3.6068   -5.7664    0.4195 N   0  0  0  0  0  0  0  0  0  0  0  0
    2.8798   -6.0891    1.5121 N   0  0  0  0  0  0  0  0  0  0  0  0
    1.4915   -6.4917    1.5726 C   0  0  0  0  0  0  0  0  0  0  0  0
    0.7792   -6.2532    0.5926 O   0  0  0  0  0  0  0  0  0  0  0  0
    0.9371   -7.2309    2.7912 C   0  0  2  0  0  0  0  0  0  0  0  0
   -0.3504   -8.0166    2.4512 C   0  0  0  0  0  0  0  0  0  0  0  0
   -0.9432   -8.6584    3.6799 C   0  0  0  0  0  0  0  0  0  0  0  0
   -0.5886   -8.3098    4.9253 C   0  0  0  0  0  0  0  0  0  0  0  0
    0.4084   -7.2148    5.2494 C   0  0  0  0  0  0  0  0  0  0  0  0
    0.7235   -6.3208    4.0338 C   0  0  1  0  0  0  0  0  0  0  0  0
    0.6506   -3.2341    4.5055 O   0  0  0  0  0  0  0  0  0  0  0  0
   -0.3560   -0.1073    3.9536 H   0  0  0  0  0  0  0  0  0  0  0  0
   -0.2176   -0.8784    5.5406 H   0  0  0  0  0  0  0  0  0  0  0  0
   -1.3868   -1.4854    4.3603 H   0  0  0  0  0  0  0  0  0  0  0  0
    1.7742   -1.0027    2.3678 H   0  0  0  0  0  0  0  0  0  0  0  0
    3.0734   -3.3782    2.3079 H   0  0  0  0  0  0  0  0  0  0  0  0
    1.9600   -5.2706    5.4562 H   0  0  0  0  0  0  0  0  0  0  0  0
    3.8866   -5.6819    4.5650 H   0  0  0  0  0  0  0  0  0  0  0  0
    5.6462   -5.2591    0.2889 H   0  0  0  0  0  0  0  0  0  0  0  0
    1.6924   -7.9804    3.0408 H   0  0  0  0  0  0  0  0  0  0  0  0
   -1.1214   -7.4039    1.9826 H   0  0  0  0  0  0  0  0  0  0  0  0
   -0.1138   -8.8170    1.7485 H   0  0  0  0  0  0  0  0  0  0  0  0
   -1.6652   -9.4508    3.5218 H   0  0  0  0  0  0  0  0  0  0  0  0
   -1.0079   -8.8526    5.7624 H   0  0  0  0  0  0  0  0  0  0  0  0
    0.0005   -6.6088    6.0583 H   0  0  0  0  0  0  0  0  0  0  0  0
    1.3125   -7.6988    5.6302 H   0  0  0  0  0  0  0  0  0  0  0  0
   -0.1735   -5.7271    3.8661 H   0  0  0  0  0  0  0  0  0  0  0  0
  1  2  1  0
  1 22  1  0
  1 23  1  0
  1 24  1  0
  2 21  1  0
  2  3  2  0
  3  4  1  0
  3 25  1  0
  4  5  2  0
  4 26  1  0
  5  6  1  0
  5 21  1  0
  6 20  1  0
  6  7  1  0
  6 27  1  1
  7  8  1  0
  7 28  1  0
  8 12  1  0
  8  9  2  0
  9 10  1  0
 10 11  2  0
 10 29  1  0
 11 12  1  0
 12 13  1  0
 13 14  2  0
 13 15  1  0
 15 20  1  0
 15 16  1  0
 15 30  1  1
 16 17  1  0
 16 31  1  0
 16 32  1  0
 17 18  2  0
 17 33  1  0
 18 19  1  0
 18 34  1  0
 19 20  1  0
 19 35  1  0
 19 36  1  0
 20 37  1  6
M  END
>  <i_m_ct_stereo_status>  (204) 
1

>  <s_m_source_file>  (204) 
/var/tmp/pbs.5076255.sched01/tmppxy1xzy0/80exjuxwr6.sdf

>  <i_m_source_file_index>  (204) 
16

>  <i_lp_mmshare_version>  (204) 
48012

>  <i_f3d_flags>  (204) 
0

>  <s_epik_input>  (204) 
W0NIM11jMVtjSF1bY0hdYyhvMSlbQ0BIXShbTkhdMilbQ0BIXShbQ0gyXVtDSF09W0NIXVtDSDJdMylbQ0BASF0zQyg9TyluKGMyNCluW2NIXW40

>  <s_epik_cmdline>  (204) 
J2VwaWtfcHl0aG9uJywgJy1waHQnLCAnMi4wJywgJy1waCcsICc3LjAnLCAnLXRuJywgJzgnLCAnLW1hJywgJzIwMCcsICctaW1hZScsICc8aW5maWxlLm1hZT4nLCAnLW9tYWUnLCAnPG91dGZpbGUubWFlPic=

>  <r_lp_tautomer_probability>  (204) 
1

>  <r_epik_Ionization_Penalty>  (204) 
0.000457432

>  <r_epik_Ionization_Penalty_Charging>  (204) 
0

>  <r_epik_Ionization_Penalty_Neutral>  (204) 
0.000457432

>  <r_epik_State_Penalty>  (204) 
-0

>  <r_epik_Charging_Adjusted_Penalty>  (204) 
0

>  <i_epik_Tot_Q>  (204) 
0

>  <i_epik_Tot_abs_Q>  (204) 
0

>  <s_lp_Force_Field>  (204) 
OPLS3e

>  <r_lp_Energy>  (204) 
20.9529

>  <b_lp_Chiralities_Consistent>  (204) 
1

>  <s_lp_Variant>  (204) 
68:0-1

>  <s_i_glide_gridfile>  (204) 
pfpi4k_grid

>  <i_i_glide_lignum>  (204) 
16

>  <i_i_glide_rotatable_bonds>  (204) 
1

>  <r_i_docking_score>  (204) 
-2.88948

>  <r_i_glide_ligand_efficiency>  (204) 
-0.137594

>  <r_i_glide_ligand_efficiency_sa>  (204) 
-0.379612

>  <r_i_glide_ligand_efficiency_ln>  (204) 
-0.714419

>  <r_i_glide_gscore>  (204) 
-2.88948

>  <r_i_glide_lipo>  (204) 
-0.0211395

>  <r_i_glide_hbond>  (204) 
-0.168339

>  <r_i_glide_metal>  (204) 
-0

>  <r_i_glide_rewards>  (204) 
-1.57224

>  <r_i_glide_evdw>  (204) 
-19.6915

>  <r_i_glide_ecoul>  (204) 
-2.10074

>  <r_i_glide_erotb>  (204) 
0.224225

>  <r_i_glide_esite>  (204) 
-0.0523021

>  <r_i_glide_emodel>  (204) 
-25.5227

>  <r_i_glide_energy>  (204) 
-21.7922

>  <r_i_glide_einternal>  (204) 
0.535423

>  <r_i_glide_intrahb_reward>  (204) 
-0

>  <i_i_glide_confnum>  (204) 
3

>  <i_i_glide_posenum>  (204) 
6

>  <r_i_glide_eff_state_penalty>  (204) 
0

>  <ligand_id>  (204) 
68

>  <original_smiles>  (204) 
Cc1ccc(C2Nc3ncnn3C(=O)C3CC=CCC32)o1

>  <smiles>  (204) 
[H]C1=C([H])C([H])([H])C2([H])C([H])(c3oc(C([H])([H])[H])c([H])c3[H])N([H])c3nc([H])nn3C(=O)C2([H])C1([H])[H]

$$$$
68:0:2
     RDKit          3D

 37 40  0  0  1  0  0  0  0  0999 V2000
   -0.5869   -5.9230    5.5174 C   0  0  0  0  0  0  0  0  0  0  0  0
   -0.5646   -6.7689    4.2908 C   0  0  0  0  0  0  0  0  0  0  0  0
   -1.5001   -7.4560    3.5777 C   0  0  0  0  0  0  0  0  0  0  0  0
   -0.8119   -8.0331    2.4663 C   0  0  0  0  0  0  0  0  0  0  0  0
    0.4906   -7.6357    2.5722 C   0  0  0  0  0  0  0  0  0  0  0  0
    1.7275   -7.9152    1.7679 C   0  0  2  0  0  0  0  0  0  0  0  0
    2.1234   -9.3022    1.9422 N   0  0  0  0  0  0  0  0  0  0  0  0
    2.3643  -10.0051    3.1167 C   0  0  0  0  0  0  0  0  0  0  0  0
    1.9717  -11.2611    3.2944 N   0  0  0  0  0  0  0  0  0  0  0  0
    2.2269  -11.3949    4.6374 C   0  0  0  0  0  0  0  0  0  0  0  0
    2.7439  -10.3263    5.2477 N   0  0  0  0  0  0  0  0  0  0  0  0
    2.8711   -9.4452    4.2262 N   0  0  0  0  0  0  0  0  0  0  0  0
    3.4648   -8.1247    4.2775 C   0  0  0  0  0  0  0  0  0  0  0  0
    3.5841   -7.5991    5.3826 O   0  0  0  0  0  0  0  0  0  0  0  0
    4.0103   -7.4520    3.0047 C   0  0  2  0  0  0  0  0  0  0  0  0
    5.0208   -6.3233    3.3328 C   0  0  0  0  0  0  0  0  0  0  0  0
    5.4758   -5.5932    2.0843 C   0  0  0  0  0  0  0  0  0  0  0  0
    4.8276   -5.6837    0.9088 C   0  0  0  0  0  0  0  0  0  0  0  0
    3.5778   -6.5170    0.7022 C   0  0  0  0  0  0  0  0  0  0  0  0
    2.9145   -6.9438    2.0260 C   0  0  1  0  0  0  0  0  0  0  0  0
    0.6518   -6.8952    3.7023 O   0  0  0  0  0  0  0  0  0  0  0  0
   -1.5917   -5.8581    5.9282 H   0  0  0  0  0  0  0  0  0  0  0  0
   -0.2526   -4.9146    5.2845 H   0  0  0  0  0  0  0  0  0  0  0  0
    0.0748   -6.3337    6.2764 H   0  0  0  0  0  0  0  0  0  0  0  0
   -2.5526   -7.5274    3.8162 H   0  0  0  0  0  0  0  0  0  0  0  0
   -1.2167   -8.6716    1.6941 H   0  0  0  0  0  0  0  0  0  0  0  0
    1.4131   -7.8179    0.7260 H   0  0  0  0  0  0  0  0  0  0  0  0
    1.7365   -9.8947    1.2249 H   0  0  0  0  0  0  0  0  0  0  0  0
    2.0197  -12.3065    5.1901 H   0  0  0  0  0  0  0  0  0  0  0  0
    4.5856   -8.2318    2.5034 H   0  0  0  0  0  0  0  0  0  0  0  0
    4.6076   -5.5870    4.0278 H   0  0  0  0  0  0  0  0  0  0  0  0
    5.9038   -6.7429    3.8156 H   0  0  0  0  0  0  0  0  0  0  0  0
    6.3534   -4.9688    2.1812 H   0  0  0  0  0  0  0  0  0  0  0  0
    5.1963   -5.1561    0.0425 H   0  0  0  0  0  0  0  0  0  0  0  0
    2.8671   -5.9315    0.1186 H   0  0  0  0  0  0  0  0  0  0  0  0
    3.8581   -7.3893    0.1089 H   0  0  0  0  0  0  0  0  0  0  0  0
    2.5150   -6.0170    2.4386 H   0  0  0  0  0  0  0  0  0  0  0  0
  1  2  1  0
  1 22  1  0
  1 23  1  0
  1 24  1  0
  2 21  1  0
  2  3  2  0
  3  4  1  0
  3 25  1  0
  4  5  2  0
  4 26  1  0
  5  6  1  0
  5 21  1  0
  6 20  1  0
  6  7  1  0
  6 27  1  6
  7  8  1  0
  7 28  1  0
  8 12  1  0
  8  9  2  0
  9 10  1  0
 10 11  2  0
 10 29  1  0
 11 12  1  0
 12 13  1  0
 13 14  2  0
 13 15  1  0
 15 20  1  0
 15 16  1  0
 15 30  1  6
 16 17  1  0
 16 31  1  0
 16 32  1  0
 17 18  2  0
 17 33  1  0
 18 19  1  0
 18 34  1  0
 19 20  1  0
 19 35  1  0
 19 36  1  0
 20 37  1  1
M  END
>  <i_m_ct_stereo_status>  (205) 
1

>  <s_m_source_file>  (205) 
/var/tmp/pbs.5076255.sched01/tmppxy1xzy0/80exjuxwr6.sdf

>  <i_m_source_file_index>  (205) 
16

>  <i_lp_mmshare_version>  (205) 
48012

>  <i_f3d_flags>  (205) 
0

>  <s_epik_input>  (205) 
W0NIM11jMVtjSF1bY0hdYyhvMSlbQ0BIXShbTkhdMilbQ0BIXShbQ0gyXVtDSF09W0NIXVtDSDJdMylbQ0BASF0zQyg9TyluKGMyNCluW2NIXW40

>  <s_epik_cmdline>  (205) 
J2VwaWtfcHl0aG9uJywgJy1waHQnLCAnMi4wJywgJy1waCcsICc3LjAnLCAnLXRuJywgJzgnLCAnLW1hJywgJzIwMCcsICctaW1hZScsICc8aW5maWxlLm1hZT4nLCAnLW9tYWUnLCAnPG91dGZpbGUubWFlPic=

>  <r_lp_tautomer_probability>  (205) 
1

>  <r_epik_Ionization_Penalty>  (205) 
0.000457432

>  <r_epik_Ionization_Penalty_Charging>  (205) 
0

>  <r_epik_Ionization_Penalty_Neutral>  (205) 
0.000457432

>  <r_epik_State_Penalty>  (205) 
-0

>  <r_epik_Charging_Adjusted_Penalty>  (205) 
0

>  <i_epik_Tot_Q>  (205) 
0

>  <i_epik_Tot_abs_Q>  (205) 
0

>  <s_lp_Force_Field>  (205) 
OPLS3e

>  <r_lp_Energy>  (205) 
20.9529

>  <b_lp_Chiralities_Consistent>  (205) 
1

>  <s_lp_Variant>  (205) 
68:0-1

>  <s_i_glide_gridfile>  (205) 
pfpi4k_grid

>  <i_i_glide_lignum>  (205) 
16

>  <i_i_glide_rotatable_bonds>  (205) 
1

>  <r_i_docking_score>  (205) 
-2.77235

>  <r_i_glide_ligand_efficiency>  (205) 
-0.132017

>  <r_i_glide_ligand_efficiency_sa>  (205) 
-0.364224

>  <r_i_glide_ligand_efficiency_ln>  (205) 
-0.685458

>  <r_i_glide_gscore>  (205) 
-2.77235

>  <r_i_glide_lipo>  (205) 
-0.167071

>  <r_i_glide_hbond>  (205) 
-0.0786723

>  <r_i_glide_metal>  (205) 
-0

>  <r_i_glide_rewards>  (205) 
-1.47862

>  <r_i_glide_evdw>  (205) 
-21.9457

>  <r_i_glide_ecoul>  (205) 
-0.771487

>  <r_i_glide_erotb>  (205) 
0.224225

>  <r_i_glide_esite>  (205) 
-0.0592033

>  <r_i_glide_emodel>  (205) 
-25.6423

>  <r_i_glide_energy>  (205) 
-22.7172

>  <r_i_glide_einternal>  (205) 
2.29

>  <r_i_glide_intrahb_reward>  (205) 
-0

>  <i_i_glide_confnum>  (205) 
5

>  <i_i_glide_posenum>  (205) 
29

>  <r_i_glide_eff_state_penalty>  (205) 
0

>  <ligand_id>  (205) 
68

>  <original_smiles>  (205) 
Cc1ccc(C2Nc3ncnn3C(=O)C3CC=CCC32)o1

>  <smiles>  (205) 
[H]C1=C([H])C([H])([H])C2([H])C([H])(c3oc(C([H])([H])[H])c([H])c3[H])N([H])c3nc([H])nn3C(=O)C2([H])C1([H])[H]

$$$$
69:0:0
     RDKit          3D

 51 56  0  0  1  0  0  0  0  0999 V2000
    5.0459   -3.6551   -2.9671 C   0  0  0  0  0  0  0  0  0  0  0  0
    4.7928   -2.6328   -2.0151 O   0  0  0  0  0  0  0  0  0  0  0  0
    4.3313   -2.9861   -0.7605 C   0  0  0  0  0  0  0  0  0  0  0  0
    4.1144   -4.3263   -0.3362 C   0  0  0  0  0  0  0  0  0  0  0  0
    3.6215   -4.6195    0.9507 C   0  0  0  0  0  0  0  0  0  0  0  0
    3.3445   -3.5510    1.8200 C   0  0  0  0  0  0  0  0  0  0  0  0
    3.5251   -2.2341    1.4143 C   0  0  0  0  0  0  0  0  0  0  0  0
    4.0309   -1.9377    0.1345 C   0  0  0  0  0  0  0  0  0  0  0  0
    4.2258   -0.6503   -0.2555 O   0  0  0  0  0  0  0  0  0  0  0  0
    3.0748   -1.3384    2.5192 C   0  0  1  0  0  0  0  0  0  0  0  0
    3.3365    0.0694    2.4794 O   0  0  0  0  0  0  0  0  0  0  0  0
    1.9885   -0.3559    2.1683 C   0  0  2  0  0  0  0  0  0  0  0  0
    0.9312    0.2695    3.0486 C   0  0  0  0  0  0  0  0  0  0  0  0
    0.4558    1.5315    2.6255 C   0  0  0  0  0  0  0  0  0  0  0  0
   -0.5975    2.1771    3.2921 C   0  0  0  0  0  0  0  0  0  0  0  0
   -1.0351    3.4014    2.8879 O   0  0  0  0  0  0  0  0  0  0  0  0
   -1.2073    1.5581    4.3962 C   0  0  0  0  0  0  0  0  0  0  0  0
   -0.7524    0.3106    4.8360 C   0  0  0  0  0  0  0  0  0  0  0  0
    0.3135   -0.3480    4.1801 C   0  0  0  0  0  0  0  0  0  0  0  0
    0.7724   -1.6792    4.7554 C   0  0  0  0  0  0  0  0  0  0  0  0
    2.2978   -1.6850    4.9762 C   0  0  1  0  0  0  0  0  0  0  0  0
    2.7890   -2.5065    6.1162 N   0  0  2  0  0  0  0  0  0  0  0  0
    2.4758   -1.9823    7.4726 C   0  0  0  0  0  0  0  0  0  0  0  0
    4.2449   -2.6890    5.8866 C   0  0  0  0  0  0  0  0  0  0  0  0
    4.5252   -2.1825    4.4642 C   0  0  0  0  0  0  0  0  0  0  0  0
    3.1418   -2.1852    3.7885 C   0  0  2  0  0  0  0  0  0  0  0  0
    2.8636   -3.6298    3.2477 C   0  0  0  0  0  0  0  0  0  0  0  0
    5.4277   -3.2296   -3.8937 H   0  0  0  0  0  0  0  0  0  0  0  0
    4.1501   -4.2185   -3.2251 H   0  0  0  0  0  0  0  0  0  0  0  0
    5.8121   -4.3300   -2.5939 H   0  0  0  0  0  0  0  0  0  0  0  0
    4.3160   -5.1445   -1.0054 H   0  0  0  0  0  0  0  0  0  0  0  0
    3.4728   -5.6412    1.2666 H   0  0  0  0  0  0  0  0  0  0  0  0
    3.8652   -0.0185    0.3460 H   0  0  0  0  0  0  0  0  0  0  0  0
    1.7293   -0.2264    1.1208 H   0  0  0  0  0  0  0  0  0  0  0  0
    0.8958    2.0080    1.7568 H   0  0  0  0  0  0  0  0  0  0  0  0
   -0.5817    3.7493    2.1180 H   0  0  0  0  0  0  0  0  0  0  0  0
   -2.0233    2.0472    4.9019 H   0  0  0  0  0  0  0  0  0  0  0  0
   -1.2315   -0.1530    5.6852 H   0  0  0  0  0  0  0  0  0  0  0  0
    0.2522   -1.8437    5.7044 H   0  0  0  0  0  0  0  0  0  0  0  0
    0.4406   -2.4831    4.1018 H   0  0  0  0  0  0  0  0  0  0  0  0
    2.5935   -0.6601    5.2165 H   0  0  0  0  0  0  0  0  0  0  0  0
    2.8990   -0.9865    7.6293 H   0  0  0  0  0  0  0  0  0  0  0  0
    2.8903   -2.6431    8.2384 H   0  0  0  0  0  0  0  0  0  0  0  0
    1.3999   -1.9297    7.6452 H   0  0  0  0  0  0  0  0  0  0  0  0
    4.8449   -2.1437    6.6145 H   0  0  0  0  0  0  0  0  0  0  0  0
    4.5028   -3.7402    6.0051 H   0  0  0  0  0  0  0  0  0  0  0  0
    4.9083   -1.1615    4.5262 H   0  0  0  0  0  0  0  0  0  0  0  0
    5.2723   -2.7965    3.9560 H   0  0  0  0  0  0  0  0  0  0  0  0
    1.7976   -3.8443    3.1850 H   0  0  0  0  0  0  0  0  0  0  0  0
    3.3421   -4.4390    3.8091 H   0  0  0  0  0  0  0  0  0  0  0  0
    2.3760   -3.4260    6.0372 H   0  0  0  0  0  0  0  0  0  0  0  0
  1  2  1  0
  1 28  1  0
  1 29  1  0
  1 30  1  0
  2  3  1  0
  3  8  2  0
  3  4  1  0
  4  5  2  0
  4 31  1  0
  5  6  1  0
  5 32  1  0
  6 27  1  0
  6  7  2  0
  7  8  1  0
  7 10  1  0
  8  9  1  0
  9 33  1  0
 10 12  1  0
 10 26  1  0
 10 11  1  1
 11 12  1  0
 12 13  1  0
 12 34  1  6
 13 19  2  0
 13 14  1  0
 14 15  2  0
 14 35  1  0
 15 16  1  0
 15 17  1  0
 16 36  1  0
 17 18  2  0
 17 37  1  0
 18 19  1  0
 18 38  1  0
 19 20  1  0
 20 21  1  0
 20 39  1  0
 20 40  1  0
 21 26  1  0
 21 22  1  0
 21 41  1  1
 22 23  1  0
 22 24  1  0
 22 51  1  1
 23 42  1  0
 23 43  1  0
 23 44  1  0
 24 25  1  0
 24 45  1  0
 24 46  1  0
 26 25  1  1
 25 47  1  0
 25 48  1  0
 26 27  1  0
 27 49  1  0
 27 50  1  0
M  CHG  1  22   1
M  END
>  <i_m_ct_stereo_status>  (206) 
1

>  <s_m_source_file>  (206) 
/var/tmp/pbs.5076255.sched01/tmppxy1xzy0/80exjuxwr6.sdf

>  <i_m_source_file_index>  (206) 
17

>  <i_lp_mmshare_version>  (206) 
48012

>  <i_f3d_flags>  (206) 
0

>  <s_epik_input>  (206) 
W0NIM11PYyhbY0hdW2NIXTEpYyhbT0hdKWMyYzFbQ0gyXVtDQEBdMyhbQ0BdMjQ1KVtDQEhdKE4oW0NIM10pW0NIMl1bQ0gyXTMpW0NIMl1jNmMoW0NASF01TzQpW2NIXWMoW09IXSlbY0hdW2NIXTY=

>  <s_epik_cmdline>  (206) 
J2VwaWtfcHl0aG9uJywgJy1waHQnLCAnMi4wJywgJy1waCcsICc3LjAnLCAnLXRuJywgJzgnLCAnLW1hJywgJzIwMCcsICctaW1hZScsICc8aW5maWxlLm1hZT4nLCAnLW9tYWUnLCAnPG91dGZpbGUubWFlPic=

>  <r_lp_tautomer_probability>  (206) 
1

>  <r_epik_Ionization_Penalty>  (206) 
0.00802164

>  <r_epik_Ionization_Penalty_Charging>  (206) 
0.00472587

>  <r_epik_Ionization_Penalty_Neutral>  (206) 
0.00329577

>  <r_epik_State_Penalty>  (206) 
-0

>  <r_epik_Charging_Adjusted_Penalty>  (206) 
0.00472587

>  <i_epik_Tot_Q>  (206) 
1

>  <i_epik_Tot_abs_Q>  (206) 
1

>  <s_lp_Force_Field>  (206) 
OPLS3e

>  <r_lp_Energy>  (206) 
52.5702

>  <b_lp_Chiralities_Consistent>  (206) 
1

>  <s_lp_Variant>  (206) 
69:0-1

>  <s_i_glide_gridfile>  (206) 
pfpi4k_grid

>  <i_i_glide_lignum>  (206) 
17

>  <i_i_glide_rotatable_bonds>  (206) 
3

>  <r_i_docking_score>  (206) 
-3.77014

>  <r_i_glide_ligand_efficiency>  (206) 
-0.139635

>  <r_i_glide_ligand_efficiency_sa>  (206) 
-0.418904

>  <r_i_glide_ligand_efficiency_ln>  (206) 
-0.877626

>  <r_i_glide_gscore>  (206) 
-3.77014

>  <r_i_glide_lipo>  (206) 
-0.133682

>  <r_i_glide_hbond>  (206) 
-0.16

>  <r_i_glide_metal>  (206) 
-0

>  <r_i_glide_rewards>  (206) 
-1.4107

>  <r_i_glide_evdw>  (206) 
-20.9013

>  <r_i_glide_ecoul>  (206) 
-6.80459

>  <r_i_glide_erotb>  (206) 
0

>  <r_i_glide_esite>  (206) 
0

>  <r_i_glide_emodel>  (206) 
-41.1869

>  <r_i_glide_energy>  (206) 
-27.7059

>  <r_i_glide_einternal>  (206) 
0.155868

>  <r_i_glide_intrahb_reward>  (206) 
-0.5

>  <i_i_glide_confnum>  (206) 
1

>  <i_i_glide_posenum>  (206) 
10

>  <r_i_glide_eff_state_penalty>  (206) 
0

>  <ligand_id>  (206) 
69

>  <original_smiles>  (206) 
COc1ccc2c(c1O)C13OC1c1cc(O)ccc1CC1N(C)CCC13C2

>  <smiles>  (206) 
[H]Oc1c([H])c([H])c2c(c1[H])C1([H])OC13c1c(O[H])c(OC([H])([H])[H])c([H])c([H])c1C([H])([H])C31C([H])([H])C([H])([H])[N+]([H])(C([H])([H])[H])C1([H])C2([H])[H]

$$$$
69:0:1
     RDKit          3D

 51 56  0  0  1  0  0  0  0  0999 V2000
    3.4959   -2.0534   -1.1161 C   0  0  0  0  0  0  0  0  0  0  0  0
    4.4402   -2.3549   -0.0948 O   0  0  0  0  0  0  0  0  0  0  0  0
    3.9746   -2.2318    1.1939 C   0  0  0  0  0  0  0  0  0  0  0  0
    3.8351   -3.4117    1.9593 C   0  0  0  0  0  0  0  0  0  0  0  0
    3.4145   -3.3651    3.3050 C   0  0  0  0  0  0  0  0  0  0  0  0
    3.1424   -2.1090    3.8739 C   0  0  0  0  0  0  0  0  0  0  0  0
    3.2629   -0.9405    3.1287 C   0  0  0  0  0  0  0  0  0  0  0  0
    3.6953   -0.9726    1.7859 C   0  0  0  0  0  0  0  0  0  0  0  0
    3.8613    0.1903    1.0939 O   0  0  0  0  0  0  0  0  0  0  0  0
    2.8321    0.1979    3.9874 C   0  0  1  0  0  0  0  0  0  0  0  0
    3.0466    1.5493    3.5709 O   0  0  0  0  0  0  0  0  0  0  0  0
    1.7031    1.0278    3.4396 C   0  0  2  0  0  0  0  0  0  0  0  0
    0.6655    1.8430    4.1721 C   0  0  0  0  0  0  0  0  0  0  0  0
    0.1509    2.9477    3.4554 C   0  0  0  0  0  0  0  0  0  0  0  0
   -0.8972    3.7388    3.9660 C   0  0  0  0  0  0  0  0  0  0  0  0
   -1.3647    4.8020    3.2511 O   0  0  0  0  0  0  0  0  0  0  0  0
   -1.4543    3.4241    5.2164 C   0  0  0  0  0  0  0  0  0  0  0  0
   -0.9462    2.3407    5.9498 C   0  0  0  0  0  0  0  0  0  0  0  0
    0.1095    1.5450    5.4498 C   0  0  0  0  0  0  0  0  0  0  0  0
    0.6339    0.4228    6.3351 C   0  0  0  0  0  0  0  0  0  0  0  0
    2.1654    0.5021    6.4819 C   0  0  1  0  0  0  0  0  0  0  0  0
    2.7174    0.0221    7.7782 N   0  0  2  0  0  0  0  0  0  0  0  0
    2.4406    0.8838    8.9579 C   0  0  0  0  0  0  0  0  0  0  0  0
    4.1684   -0.1913    7.5451 C   0  0  0  0  0  0  0  0  0  0  0  0
    4.3826   -0.0775    6.0249 C   0  0  0  0  0  0  0  0  0  0  0  0
    2.9751   -0.2826    5.4306 C   0  0  2  0  0  0  0  0  0  0  0  0
    2.7216   -1.8203    5.2958 C   0  0  0  0  0  0  0  0  0  0  0  0
    3.9892   -2.0798   -2.0906 H   0  0  0  0  0  0  0  0  0  0  0  0
    3.0384   -1.0689   -1.0146 H   0  0  0  0  0  0  0  0  0  0  0  0
    2.7029   -2.8019   -1.1291 H   0  0  0  0  0  0  0  0  0  0  0  0
    4.0647   -4.3548    1.4882 H   0  0  0  0  0  0  0  0  0  0  0  0
    3.3182   -4.2721    3.8837 H   0  0  0  0  0  0  0  0  0  0  0  0
    3.6393    0.9661    1.5875 H   0  0  0  0  0  0  0  0  0  0  0  0
    1.3983    0.8542    2.4091 H   0  0  0  0  0  0  0  0  0  0  0  0
    0.5663    3.1782    2.4839 H   0  0  0  0  0  0  0  0  0  0  0  0
   -0.9373    4.8539    2.3962 H   0  0  0  0  0  0  0  0  0  0  0  0
   -2.2631    4.0131    5.6128 H   0  0  0  0  0  0  0  0  0  0  0  0
   -1.3788    2.1200    6.9143 H   0  0  0  0  0  0  0  0  0  0  0  0
    0.1540    0.5116    7.3112 H   0  0  0  0  0  0  0  0  0  0  0  0
    0.2989   -0.5268    5.9297 H   0  0  0  0  0  0  0  0  0  0  0  0
    2.4419    1.5576    6.4294 H   0  0  0  0  0  0  0  0  0  0  0  0
    2.8424    1.8908    8.8239 H   0  0  0  0  0  0  0  0  0  0  0  0
    2.9006    0.4560    9.8527 H   0  0  0  0  0  0  0  0  0  0  0  0
    1.3698    0.9627    9.1546 H   0  0  0  0  0  0  0  0  0  0  0  0
    4.7824    0.5405    8.0702 H   0  0  0  0  0  0  0  0  0  0  0  0
    4.4596   -1.1729    7.9203 H   0  0  0  0  0  0  0  0  0  0  0  0
    4.7421    0.9290    5.7927 H   0  0  0  0  0  0  0  0  0  0  0  0
    5.1269   -0.7909    5.6604 H   0  0  0  0  0  0  0  0  0  0  0  0
    1.6628   -2.0638    5.3436 H   0  0  0  0  0  0  0  0  0  0  0  0
    3.2357   -2.4427    6.0331 H   0  0  0  0  0  0  0  0  0  0  0  0
    2.3244   -0.8912    7.9625 H   0  0  0  0  0  0  0  0  0  0  0  0
  1  2  1  0
  1 28  1  0
  1 29  1  0
  1 30  1  0
  2  3  1  0
  3  8  2  0
  3  4  1  0
  4  5  2  0
  4 31  1  0
  5  6  1  0
  5 32  1  0
  6 27  1  0
  6  7  2  0
  7  8  1  0
  7 10  1  0
  8  9  1  0
  9 33  1  0
 10 12  1  0
 10 26  1  0
 10 11  1  1
 11 12  1  0
 12 13  1  0
 12 34  1  6
 13 19  2  0
 13 14  1  0
 14 15  2  0
 14 35  1  0
 15 16  1  0
 15 17  1  0
 16 36  1  0
 17 18  2  0
 17 37  1  0
 18 19  1  0
 18 38  1  0
 19 20  1  0
 20 21  1  0
 20 39  1  0
 20 40  1  0
 21 26  1  0
 21 22  1  0
 21 41  1  6
 22 23  1  0
 22 24  1  0
 22 51  1  1
 23 42  1  0
 23 43  1  0
 23 44  1  0
 24 25  1  0
 24 45  1  0
 24 46  1  0
 26 25  1  1
 25 47  1  0
 25 48  1  0
 26 27  1  0
 27 49  1  0
 27 50  1  0
M  CHG  1  22   1
M  END
>  <i_m_ct_stereo_status>  (207) 
1

>  <s_m_source_file>  (207) 
/var/tmp/pbs.5076255.sched01/tmppxy1xzy0/80exjuxwr6.sdf

>  <i_m_source_file_index>  (207) 
17

>  <i_lp_mmshare_version>  (207) 
48012

>  <i_f3d_flags>  (207) 
0

>  <s_epik_input>  (207) 
W0NIM11PYyhbY0hdW2NIXTEpYyhbT0hdKWMyYzFbQ0gyXVtDQEBdMyhbQ0BdMjQ1KVtDQEhdKE4oW0NIM10pW0NIMl1bQ0gyXTMpW0NIMl1jNmMoW0NASF01TzQpW2NIXWMoW09IXSlbY0hdW2NIXTY=

>  <s_epik_cmdline>  (207) 
J2VwaWtfcHl0aG9uJywgJy1waHQnLCAnMi4wJywgJy1waCcsICc3LjAnLCAnLXRuJywgJzgnLCAnLW1hJywgJzIwMCcsICctaW1hZScsICc8aW5maWxlLm1hZT4nLCAnLW9tYWUnLCAnPG91dGZpbGUubWFlPic=

>  <r_lp_tautomer_probability>  (207) 
1

>  <r_epik_Ionization_Penalty>  (207) 
0.00802164

>  <r_epik_Ionization_Penalty_Charging>  (207) 
0.00472587

>  <r_epik_Ionization_Penalty_Neutral>  (207) 
0.00329577

>  <r_epik_State_Penalty>  (207) 
-0

>  <r_epik_Charging_Adjusted_Penalty>  (207) 
0.00472587

>  <i_epik_Tot_Q>  (207) 
1

>  <i_epik_Tot_abs_Q>  (207) 
1

>  <s_lp_Force_Field>  (207) 
OPLS3e

>  <r_lp_Energy>  (207) 
52.5702

>  <b_lp_Chiralities_Consistent>  (207) 
1

>  <s_lp_Variant>  (207) 
69:0-1

>  <s_i_glide_gridfile>  (207) 
pfpi4k_grid

>  <i_i_glide_lignum>  (207) 
17

>  <i_i_glide_rotatable_bonds>  (207) 
3

>  <r_i_docking_score>  (207) 
-3.49012

>  <r_i_glide_ligand_efficiency>  (207) 
-0.129264

>  <r_i_glide_ligand_efficiency_sa>  (207) 
-0.387791

>  <r_i_glide_ligand_efficiency_ln>  (207) 
-0.812442

>  <r_i_glide_gscore>  (207) 
-3.49012

>  <r_i_glide_lipo>  (207) 
-0.00780609

>  <r_i_glide_hbond>  (207) 
-0.32

>  <r_i_glide_metal>  (207) 
-0

>  <r_i_glide_rewards>  (207) 
-1.4107

>  <r_i_glide_evdw>  (207) 
-16.5424

>  <r_i_glide_ecoul>  (207) 
-6.16324

>  <r_i_glide_erotb>  (207) 
0

>  <r_i_glide_esite>  (207) 
0

>  <r_i_glide_emodel>  (207) 
-32.408

>  <r_i_glide_energy>  (207) 
-22.7057

>  <r_i_glide_einternal>  (207) 
6.48239

>  <r_i_glide_intrahb_reward>  (207) 
-0.5

>  <i_i_glide_confnum>  (207) 
1

>  <i_i_glide_posenum>  (207) 
16

>  <r_i_glide_eff_state_penalty>  (207) 
0

>  <ligand_id>  (207) 
69

>  <original_smiles>  (207) 
COc1ccc2c(c1O)C13OC1c1cc(O)ccc1CC1N(C)CCC13C2

>  <smiles>  (207) 
[H]Oc1c([H])c([H])c2c(c1[H])C1([H])OC13c1c(O[H])c(OC([H])([H])[H])c([H])c([H])c1C([H])([H])C31C([H])([H])C([H])([H])[N+]([H])(C([H])([H])[H])C1([H])C2([H])[H]

$$$$
69:0:2
     RDKit          3D

 51 56  0  0  1  0  0  0  0  0999 V2000
    8.9916   -5.4676    1.7177 C   0  0  0  0  0  0  0  0  0  0  0  0
    8.4480   -6.1406    2.8407 O   0  0  0  0  0  0  0  0  0  0  0  0
    7.4024   -7.0124    2.6215 C   0  0  0  0  0  0  0  0  0  0  0  0
    7.3167   -7.8519    1.4785 C   0  0  0  0  0  0  0  0  0  0  0  0
    6.2362   -8.7497    1.3192 C   0  0  0  0  0  0  0  0  0  0  0  0
    5.2416   -8.7767    2.3067 C   0  0  0  0  0  0  0  0  0  0  0  0
    5.3115   -7.9544    3.4241 C   0  0  0  0  0  0  0  0  0  0  0  0
    6.3917   -7.0724    3.6071 C   0  0  0  0  0  0  0  0  0  0  0  0
    6.4501   -6.2691    4.7083 O   0  0  0  0  0  0  0  0  0  0  0  0
    4.0847   -8.1708    4.2366 C   0  0  1  0  0  0  0  0  0  0  0  0
    3.9801   -7.6027    5.5478 O   0  0  0  0  0  0  0  0  0  0  0  0
    3.2498   -6.9512    4.4791 C   0  0  2  0  0  0  0  0  0  0  0  0
    1.7725   -6.8392    4.7446 C   0  0  0  0  0  0  0  0  0  0  0  0
    1.3796   -5.7191    5.5173 C   0  0  0  0  0  0  0  0  0  0  0  0
    0.0252   -5.4391    5.7488 C   0  0  0  0  0  0  0  0  0  0  0  0
   -0.3537   -4.3596    6.4940 O   0  0  0  0  0  0  0  0  0  0  0  0
   -0.9652   -6.2754    5.2087 C   0  0  0  0  0  0  0  0  0  0  0  0
   -0.5985   -7.3894    4.4404 C   0  0  0  0  0  0  0  0  0  0  0  0
    0.7622   -7.6874    4.2029 C   0  0  0  0  0  0  0  0  0  0  0  0
    1.0647   -8.9556    3.4109 C   0  0  0  0  0  0  0  0  0  0  0  0
    2.0795   -9.8336    4.1585 C   0  0  1  0  0  0  0  0  0  0  0  0
    1.9386  -11.3009    3.9547 N   0  0  2  0  0  0  0  0  0  0  0  0
    0.7399  -11.9067    4.5917 C   0  0  0  0  0  0  0  0  0  0  0  0
    3.2177  -11.8922    4.4128 C   0  0  0  0  0  0  0  0  0  0  0  0
    4.1879  -10.7132    4.6353 C   0  0  0  0  0  0  0  0  0  0  0  0
    3.5582   -9.5521    3.8381 C   0  0  2  0  0  0  0  0  0  0  0  0
    4.0251   -9.6653    2.3531 C   0  0  0  0  0  0  0  0  0  0  0  0
    9.8075   -4.8322    2.0588 H   0  0  0  0  0  0  0  0  0  0  0  0
    8.2450   -4.8187    1.2660 H   0  0  0  0  0  0  0  0  0  0  0  0
    9.3955   -6.1251    0.9489 H   0  0  0  0  0  0  0  0  0  0  0  0
    8.0985   -7.8321    0.7347 H   0  0  0  0  0  0  0  0  0  0  0  0
    6.1757   -9.4197    0.4726 H   0  0  0  0  0  0  0  0  0  0  0  0
    5.7286   -6.4000    5.3040 H   0  0  0  0  0  0  0  0  0  0  0  0
    3.6531   -5.9802    4.1985 H   0  0  0  0  0  0  0  0  0  0  0  0
    2.1331   -5.0549    5.9083 H   0  0  0  0  0  0  0  0  0  0  0  0
    0.3761   -3.8953    6.8687 H   0  0  0  0  0  0  0  0  0  0  0  0
   -2.0070   -6.0998    5.4008 H   0  0  0  0  0  0  0  0  0  0  0  0
   -1.3722   -8.0271    4.0360 H   0  0  0  0  0  0  0  0  0  0  0  0
    0.1266   -9.4985    3.2606 H   0  0  0  0  0  0  0  0  0  0  0  0
    1.3960   -8.6803    2.4115 H   0  0  0  0  0  0  0  0  0  0  0  0
    1.9147   -9.6794    5.2265 H   0  0  0  0  0  0  0  0  0  0  0  0
    0.7195  -11.7175    5.6652 H   0  0  0  0  0  0  0  0  0  0  0  0
    0.6958  -12.9887    4.4723 H   0  0  0  0  0  0  0  0  0  0  0  0
   -0.1707  -11.5029    4.1529 H   0  0  0  0  0  0  0  0  0  0  0  0
    3.1041  -12.4666    5.3350 H   0  0  0  0  0  0  0  0  0  0  0  0
    3.5975  -12.5817    3.6574 H   0  0  0  0  0  0  0  0  0  0  0  0
    4.2012  -10.4638    5.7037 H   0  0  0  0  0  0  0  0  0  0  0  0
    5.2130  -10.9596    4.3287 H   0  0  0  0  0  0  0  0  0  0  0  0
    3.3071   -9.2453    1.6526 H   0  0  0  0  0  0  0  0  0  0  0  0
    4.2457  -10.6836    2.0439 H   0  0  0  0  0  0  0  0  0  0  0  0
    1.9061  -11.4841    2.9647 H   0  0  0  0  0  0  0  0  0  0  0  0
  1  2  1  0
  1 28  1  0
  1 29  1  0
  1 30  1  0
  2  3  1  0
  3  8  2  0
  3  4  1  0
  4  5  2  0
  4 31  1  0
  5  6  1  0
  5 32  1  0
  6 27  1  0
  6  7  2  0
  7  8  1  0
  7 10  1  0
  8  9  1  0
  9 33  1  0
 10 12  1  0
 10 26  1  0
 10 11  1  1
 11 12  1  0
 12 13  1  0
 12 34  1  6
 13 19  2  0
 13 14  1  0
 14 15  2  0
 14 35  1  0
 15 16  1  0
 15 17  1  0
 16 36  1  0
 17 18  2  0
 17 37  1  0
 18 19  1  0
 18 38  1  0
 19 20  1  0
 20 21  1  0
 20 39  1  0
 20 40  1  0
 21 26  1  0
 21 22  1  0
 21 41  1  1
 22 23  1  0
 22 24  1  0
 22 51  1  6
 23 42  1  0
 23 43  1  0
 23 44  1  0
 24 25  1  0
 24 45  1  0
 24 46  1  0
 26 25  1  1
 25 47  1  0
 25 48  1  0
 26 27  1  0
 27 49  1  0
 27 50  1  0
M  CHG  1  22   1
M  END
>  <i_m_ct_stereo_status>  (208) 
1

>  <s_m_source_file>  (208) 
/var/tmp/pbs.5076255.sched01/tmppxy1xzy0/80exjuxwr6.sdf

>  <i_m_source_file_index>  (208) 
17

>  <i_lp_mmshare_version>  (208) 
48012

>  <i_f3d_flags>  (208) 
0

>  <s_epik_input>  (208) 
W0NIM11PYyhbY0hdW2NIXTEpYyhbT0hdKWMyYzFbQ0gyXVtDQEBdMyhbQ0BdMjQ1KVtDQEhdKE4oW0NIM10pW0NIMl1bQ0gyXTMpW0NIMl1jNmMoW0NASF01TzQpW2NIXWMoW09IXSlbY0hdW2NIXTY=

>  <s_epik_cmdline>  (208) 
J2VwaWtfcHl0aG9uJywgJy1waHQnLCAnMi4wJywgJy1waCcsICc3LjAnLCAnLXRuJywgJzgnLCAnLW1hJywgJzIwMCcsICctaW1hZScsICc8aW5maWxlLm1hZT4nLCAnLW9tYWUnLCAnPG91dGZpbGUubWFlPic=

>  <r_lp_tautomer_probability>  (208) 
1

>  <r_epik_Ionization_Penalty>  (208) 
0.00802164

>  <r_epik_Ionization_Penalty_Charging>  (208) 
0.00472587

>  <r_epik_Ionization_Penalty_Neutral>  (208) 
0.00329577

>  <r_epik_State_Penalty>  (208) 
-0

>  <r_epik_Charging_Adjusted_Penalty>  (208) 
0.00472587

>  <i_epik_Tot_Q>  (208) 
1

>  <i_epik_Tot_abs_Q>  (208) 
1

>  <s_lp_Force_Field>  (208) 
OPLS3e

>  <r_lp_Energy>  (208) 
52.5702

>  <b_lp_Chiralities_Consistent>  (208) 
1

>  <s_lp_Variant>  (208) 
69:0-1

>  <s_i_glide_gridfile>  (208) 
pfpi4k_grid

>  <i_i_glide_lignum>  (208) 
17

>  <i_i_glide_rotatable_bonds>  (208) 
3

>  <r_i_docking_score>  (208) 
-3.07557

>  <r_i_glide_ligand_efficiency>  (208) 
-0.11391

>  <r_i_glide_ligand_efficiency_sa>  (208) 
-0.34173

>  <r_i_glide_ligand_efficiency_ln>  (208) 
-0.715942

>  <r_i_glide_gscore>  (208) 
-3.07557

>  <r_i_glide_lipo>  (208) 
-0.173884

>  <r_i_glide_hbond>  (208) 
0

>  <r_i_glide_metal>  (208) 
-0

>  <r_i_glide_rewards>  (208) 
-1.4107

>  <r_i_glide_evdw>  (208) 
-18.2324

>  <r_i_glide_ecoul>  (208) 
-3.86243

>  <r_i_glide_erotb>  (208) 
0

>  <r_i_glide_esite>  (208) 
0

>  <r_i_glide_emodel>  (208) 
-32.7161

>  <r_i_glide_energy>  (208) 
-22.0948

>  <r_i_glide_einternal>  (208) 
2.4318

>  <r_i_glide_intrahb_reward>  (208) 
-0.5

>  <i_i_glide_confnum>  (208) 
2

>  <i_i_glide_posenum>  (208) 
1

>  <r_i_glide_eff_state_penalty>  (208) 
0

>  <ligand_id>  (208) 
69

>  <original_smiles>  (208) 
COc1ccc2c(c1O)C13OC1c1cc(O)ccc1CC1N(C)CCC13C2

>  <smiles>  (208) 
[H]Oc1c([H])c([H])c2c(c1[H])C1([H])OC13c1c(O[H])c(OC([H])([H])[H])c([H])c([H])c1C([H])([H])C31C([H])([H])C([H])([H])[N+]([H])(C([H])([H])[H])C1([H])C2([H])[H]

$$$$
70:0:0
     RDKit          3D

 41 44  0  0  1  0  0  0  0  0999 V2000
    3.5951   -2.0325   -2.3982 C   0  0  0  0  0  0  0  0  0  0  0  0
    4.2523   -2.6924   -1.1599 C   0  0  2  0  0  0  0  0  0  0  0  0
    5.6135   -3.2946   -1.5659 C   0  0  0  0  0  0  0  0  0  0  0  0
    6.6118   -3.6438   -0.4290 C   0  0  1  0  0  0  0  0  0  0  0  0
    6.9493   -2.4661    0.4451 C   0  0  0  0  0  0  0  0  0  0  0  0
    7.6101   -1.4914    0.0790 O   0  0  0  0  0  0  0  0  0  0  0  0
    6.4790   -2.6583    1.6733 O   0  0  0  0  0  0  0  0  0  0  0  0
    5.8441   -3.9155    1.8226 C   0  0  1  0  0  0  0  0  0  0  0  0
    4.3405   -3.6884    1.7982 C   0  0  0  0  0  0  0  0  0  0  0  0
    3.7844   -4.5887    0.6732 C   0  0  2  0  0  0  0  0  0  0  0  0
    2.6980   -5.5131    1.2954 C   0  0  1  0  0  0  0  0  0  0  0  0
    1.8022   -6.0315    0.3429 O   0  0  0  0  0  0  0  0  0  0  0  0
    3.4926   -6.6491    1.9450 C   0  0  0  0  0  0  0  0  0  0  0  0
    4.6880   -6.8571    1.0225 C   0  0  0  0  0  0  0  0  0  0  0  0
    4.9296   -5.5269    0.2665 C   0  0  2  0  0  0  0  0  0  0  0  0
    6.2242   -4.7371    0.5943 C   0  0  1  0  0  0  0  0  0  0  0  0
    7.4583   -5.6194    0.8793 C   0  0  0  0  0  0  0  0  0  0  0  0
    3.3163   -3.7499   -0.5394 C   0  0  1  0  0  0  0  0  0  0  0  0
    2.2185   -3.0697   -0.0524 O   0  0  0  0  0  0  0  0  0  0  0  0
    3.3596   -2.7598   -3.1776 H   0  0  0  0  0  0  0  0  0  0  0  0
    4.2514   -1.2804   -2.8367 H   0  0  0  0  0  0  0  0  0  0  0  0
    2.6669   -1.5163   -2.1555 H   0  0  0  0  0  0  0  0  0  0  0  0
    4.4184   -1.8883   -0.4392 H   0  0  0  0  0  0  0  0  0  0  0  0
    5.4393   -4.1639   -2.2155 H   0  0  0  0  0  0  0  0  0  0  0  0
    6.1094   -2.5748   -2.2199 H   0  0  0  0  0  0  0  0  0  0  0  0
    7.5384   -3.9343   -0.9243 H   0  0  0  0  0  0  0  0  0  0  0  0
    6.1583   -4.3852    2.7599 H   0  0  0  0  0  0  0  0  0  0  0  0
    3.9313   -3.9278    2.7743 H   0  0  0  0  0  0  0  0  0  0  0  0
    4.0866   -2.6339    1.6652 H   0  0  0  0  0  0  0  0  0  0  0  0
    2.0672   -5.0081    2.0186 H   0  0  0  0  0  0  0  0  0  0  0  0
    2.3247   -6.2546   -0.4238 H   0  0  0  0  0  0  0  0  0  0  0  0
    3.8547   -6.3237    2.9213 H   0  0  0  0  0  0  0  0  0  0  0  0
    2.9157   -7.5636    2.1014 H   0  0  0  0  0  0  0  0  0  0  0  0
    5.5437   -7.2450    1.5730 H   0  0  0  0  0  0  0  0  0  0  0  0
    4.4309   -7.6172    0.2891 H   0  0  0  0  0  0  0  0  0  0  0  0
    4.8828   -5.7723   -0.7964 H   0  0  0  0  0  0  0  0  0  0  0  0
    7.3768   -6.1614    1.8198 H   0  0  0  0  0  0  0  0  0  0  0  0
    8.3663   -5.0217    0.9552 H   0  0  0  0  0  0  0  0  0  0  0  0
    7.6171   -6.3450    0.0823 H   0  0  0  0  0  0  0  0  0  0  0  0
    2.9253   -4.3742   -1.3354 H   0  0  0  0  0  0  0  0  0  0  0  0
    1.9366   -2.4060   -0.6677 H   0  0  0  0  0  0  0  0  0  0  0  0
  1  2  1  0
  1 20  1  0
  1 21  1  0
  1 22  1  0
  2 18  1  0
  2  3  1  0
  2 23  1  1
  3  4  1  0
  3 24  1  0
  3 25  1  0
  4 16  1  0
  4  5  1  0
  4 26  1  6
  5  6  2  0
  5  7  1  0
  7  8  1  0
  8 16  1  0
  8  9  1  0
  8 27  1  1
 10  9  1  1
  9 28  1  0
  9 29  1  0
 10 15  1  0
 10 11  1  0
 10 18  1  0
 11 12  1  0
 11 13  1  0
 11 30  1  1
 12 31  1  0
 13 14  1  0
 13 32  1  0
 13 33  1  0
 14 15  1  0
 14 34  1  0
 14 35  1  0
 15 16  1  0
 15 36  1  6
 16 17  1  1
 17 37  1  0
 17 38  1  0
 17 39  1  0
 18 19  1  0
 18 40  1  6
 19 41  1  0
M  END
>  <i_m_ct_stereo_status>  (209) 
1

>  <s_m_source_file>  (209) 
/var/tmp/pbs.5076255.sched01/tmppxy1xzy0/80exjuxwr6.sdf

>  <i_m_source_file_index>  (209) 
18

>  <i_lp_mmshare_version>  (209) 
48012

>  <i_f3d_flags>  (209) 
0

>  <s_epik_input>  (209) 
W0NIMl0xW0NAQEhdMk9DKD1PKVtDQEhdKFtDSDJdW0NAQEhdKFtDSDNdKVtDQEBIXTNbT0hdKVtDQF0yKFtDSDNdKVtDQEhdKFtDQEBdMTM0KVtDSDJdW0NIMl1bQ0BASF00W09IXQ==

>  <s_epik_cmdline>  (209) 
J2VwaWtfcHl0aG9uJywgJy1waHQnLCAnMi4wJywgJy1waCcsICc3LjAnLCAnLXRuJywgJzgnLCAnLW1hJywgJzIwMCcsICctaW1hZScsICc8aW5maWxlLm1hZT4nLCAnLW9tYWUnLCAnPG91dGZpbGUubWFlPic=

>  <r_lp_tautomer_probability>  (209) 
1

>  <r_epik_Ionization_Penalty>  (209) 
6.18693e-07

>  <r_epik_Ionization_Penalty_Charging>  (209) 
0

>  <r_epik_Ionization_Penalty_Neutral>  (209) 
6.18693e-07

>  <r_epik_State_Penalty>  (209) 
-0

>  <r_epik_Charging_Adjusted_Penalty>  (209) 
0

>  <i_epik_Tot_Q>  (209) 
0

>  <i_epik_Tot_abs_Q>  (209) 
0

>  <s_epik_Chemistry_Notes>  (209) 
This compound has an ester and may undergo hydrolysis at high or low pH.

>  <s_lp_Force_Field>  (209) 
OPLS3e

>  <r_lp_Energy>  (209) 
23.6634

>  <b_lp_Chiralities_Consistent>  (209) 
1

>  <s_lp_Variant>  (209) 
70:0-1

>  <s_i_glide_gridfile>  (209) 
pfpi4k_grid

>  <i_i_glide_lignum>  (209) 
18

>  <i_i_glide_rotatable_bonds>  (209) 
2

>  <r_i_docking_score>  (209) 
-4.45636

>  <r_i_glide_ligand_efficiency>  (209) 
-0.234545

>  <r_i_glide_ligand_efficiency_sa>  (209) 
-0.625861

>  <r_i_glide_ligand_efficiency_ln>  (209) 
-1.12978

>  <r_i_glide_gscore>  (209) 
-4.45636

>  <r_i_glide_lipo>  (209) 
-0.673791

>  <r_i_glide_hbond>  (209) 
-0.0968362

>  <r_i_glide_metal>  (209) 
-0

>  <r_i_glide_rewards>  (209) 
-1.74687

>  <r_i_glide_evdw>  (209) 
-18.1377

>  <r_i_glide_ecoul>  (209) 
-6.87985

>  <r_i_glide_erotb>  (209) 
0

>  <r_i_glide_esite>  (209) 
0

>  <r_i_glide_emodel>  (209) 
-30.5179

>  <r_i_glide_energy>  (209) 
-25.0175

>  <r_i_glide_einternal>  (209) 
1.2686

>  <r_i_glide_intrahb_reward>  (209) 
-0

>  <i_i_glide_confnum>  (209) 
1

>  <i_i_glide_posenum>  (209) 
13

>  <r_i_glide_eff_state_penalty>  (209) 
0

>  <ligand_id>  (209) 
70

>  <original_smiles>  (209) 
CC1CC2C(=O)OC3CC4(C(O)CCC4C32C)C1O

>  <smiles>  (209) 
[H]OC1([H])C([H])([H])C([H])([H])C2([H])C13C([H])([H])C1([H])OC(=O)C([H])(C([H])([H])C([H])(C([H])([H])[H])C3([H])O[H])C12C([H])([H])[H]

$$$$
70:0:1
     RDKit          3D

 41 44  0  0  1  0  0  0  0  0999 V2000
    4.0222   -2.5263   -2.5560 C   0  0  0  0  0  0  0  0  0  0  0  0
    4.4272   -2.9112   -1.1130 C   0  0  2  0  0  0  0  0  0  0  0  0
    5.8114   -3.5935   -1.1591 C   0  0  0  0  0  0  0  0  0  0  0  0
    6.6013   -3.7238    0.1719 C   0  0  1  0  0  0  0  0  0  0  0  0
    6.8326   -2.3649    0.8057 C   0  0  0  0  0  0  0  0  0  0  0  0
    7.5550   -1.5104    0.2944 O   0  0  0  0  0  0  0  0  0  0  0  0
    6.1411   -2.2839    1.9287 O   0  0  0  0  0  0  0  0  0  0  0  0
    5.4601   -3.4703    2.2742 C   0  0  1  0  0  0  0  0  0  0  0  0
    3.9823   -3.2752    1.9602 C   0  0  0  0  0  0  0  0  0  0  0  0
    3.5865   -4.3866    0.9617 C   0  0  2  0  0  0  0  0  0  0  0  0
    2.3902   -5.1812    1.5499 C   0  0  1  0  0  0  0  0  0  0  0  0
    1.6724   -5.9337    0.5862 O   0  0  0  0  0  0  0  0  0  0  0  0
    3.0187   -6.1427    2.5545 C   0  0  0  0  0  0  0  0  0  0  0  0
    4.3445   -6.5419    1.9131 C   0  0  0  0  0  0  0  0  0  0  0  0
    4.7531   -5.3926    0.9554 C   0  0  2  0  0  0  0  0  0  0  0  0
    6.0004   -4.5593    1.3288 C   0  0  1  0  0  0  0  0  0  0  0  0
    7.1362   -5.3796    1.9826 C   0  0  0  0  0  0  0  0  0  0  0  0
    3.3548   -3.8175   -0.4601 C   0  0  1  0  0  0  0  0  0  0  0  0
    2.1923   -3.0789   -0.3693 O   0  0  0  0  0  0  0  0  0  0  0  0
    3.8954   -3.4038   -3.1923 H   0  0  0  0  0  0  0  0  0  0  0  0
    4.7709   -1.8871   -3.0214 H   0  0  0  0  0  0  0  0  0  0  0  0
    3.0824   -1.9747   -2.5790 H   0  0  0  0  0  0  0  0  0  0  0  0
    4.5101   -1.9764   -0.5606 H   0  0  0  0  0  0  0  0  0  0  0  0
    5.7054   -4.5737   -1.6233 H   0  0  0  0  0  0  0  0  0  0  0  0
    6.4502   -3.0292   -1.8425 H   0  0  0  0  0  0  0  0  0  0  0  0
    7.5799   -4.1333   -0.0827 H   0  0  0  0  0  0  0  0  0  0  0  0
    5.5954   -3.7408    3.3237 H   0  0  0  0  0  0  0  0  0  0  0  0
    3.4063   -3.3123    2.8840 H   0  0  0  0  0  0  0  0  0  0  0  0
    3.7898   -2.2789    1.5639 H   0  0  0  0  0  0  0  0  0  0  0  0
    1.6648   -4.5287    2.0389 H   0  0  0  0  0  0  0  0  0  0  0  0
    2.3018   -6.4145    0.0764 H   0  0  0  0  0  0  0  0  0  0  0  0
    3.2196   -5.6182    3.4908 H   0  0  0  0  0  0  0  0  0  0  0  0
    2.3897   -7.0011    2.7945 H   0  0  0  0  0  0  0  0  0  0  0  0
    5.0776   -6.8091    2.6720 H   0  0  0  0  0  0  0  0  0  0  0  0
    4.1818   -7.4419    1.3163 H   0  0  0  0  0  0  0  0  0  0  0  0
    4.8827   -5.8557   -0.0261 H   0  0  0  0  0  0  0  0  0  0  0  0
    6.8865   -5.7023    2.9937 H   0  0  0  0  0  0  0  0  0  0  0  0
    8.0483   -4.7861    2.0724 H   0  0  0  0  0  0  0  0  0  0  0  0
    7.3843   -6.2634    1.3938 H   0  0  0  0  0  0  0  0  0  0  0  0
    3.1539   -4.6519   -1.1241 H   0  0  0  0  0  0  0  0  0  0  0  0
    2.2991   -2.1693   -0.6214 H   0  0  0  0  0  0  0  0  0  0  0  0
  1  2  1  0
  1 20  1  0
  1 21  1  0
  1 22  1  0
  2 18  1  0
  2  3  1  0
  2 23  1  1
  3  4  1  0
  3 24  1  0
  3 25  1  0
  4 16  1  0
  4  5  1  0
  4 26  1  6
  5  6  2  0
  5  7  1  0
  7  8  1  0
  8 16  1  0
  8  9  1  0
  8 27  1  1
 10  9  1  1
  9 28  1  0
  9 29  1  0
 10 15  1  0
 10 11  1  0
 10 18  1  0
 11 12  1  0
 11 13  1  0
 11 30  1  1
 12 31  1  0
 13 14  1  0
 13 32  1  0
 13 33  1  0
 14 15  1  0
 14 34  1  0
 14 35  1  0
 15 16  1  0
 15 36  1  6
 16 17  1  1
 17 37  1  0
 17 38  1  0
 17 39  1  0
 18 19  1  0
 18 40  1  6
 19 41  1  0
M  END
>  <i_m_ct_stereo_status>  (210) 
1

>  <s_m_source_file>  (210) 
/var/tmp/pbs.5076255.sched01/tmppxy1xzy0/80exjuxwr6.sdf

>  <i_m_source_file_index>  (210) 
18

>  <i_lp_mmshare_version>  (210) 
48012

>  <i_f3d_flags>  (210) 
0

>  <s_epik_input>  (210) 
W0NIMl0xW0NAQEhdMk9DKD1PKVtDQEhdKFtDSDJdW0NAQEhdKFtDSDNdKVtDQEBIXTNbT0hdKVtDQF0yKFtDSDNdKVtDQEhdKFtDQEBdMTM0KVtDSDJdW0NIMl1bQ0BASF00W09IXQ==

>  <s_epik_cmdline>  (210) 
J2VwaWtfcHl0aG9uJywgJy1waHQnLCAnMi4wJywgJy1waCcsICc3LjAnLCAnLXRuJywgJzgnLCAnLW1hJywgJzIwMCcsICctaW1hZScsICc8aW5maWxlLm1hZT4nLCAnLW9tYWUnLCAnPG91dGZpbGUubWFlPic=

>  <r_lp_tautomer_probability>  (210) 
1

>  <r_epik_Ionization_Penalty>  (210) 
6.18693e-07

>  <r_epik_Ionization_Penalty_Charging>  (210) 
0

>  <r_epik_Ionization_Penalty_Neutral>  (210) 
6.18693e-07

>  <r_epik_State_Penalty>  (210) 
-0

>  <r_epik_Charging_Adjusted_Penalty>  (210) 
0

>  <i_epik_Tot_Q>  (210) 
0

>  <i_epik_Tot_abs_Q>  (210) 
0

>  <s_epik_Chemistry_Notes>  (210) 
This compound has an ester and may undergo hydrolysis at high or low pH.

>  <s_lp_Force_Field>  (210) 
OPLS3e

>  <r_lp_Energy>  (210) 
23.6634

>  <b_lp_Chiralities_Consistent>  (210) 
1

>  <s_lp_Variant>  (210) 
70:0-1

>  <s_i_glide_gridfile>  (210) 
pfpi4k_grid

>  <i_i_glide_lignum>  (210) 
18

>  <i_i_glide_rotatable_bonds>  (210) 
2

>  <r_i_docking_score>  (210) 
-3.94797

>  <r_i_glide_ligand_efficiency>  (210) 
-0.207788

>  <r_i_glide_ligand_efficiency_sa>  (210) 
-0.554461

>  <r_i_glide_ligand_efficiency_ln>  (210) 
-1.00089

>  <r_i_glide_gscore>  (210) 
-3.94797

>  <r_i_glide_lipo>  (210) 
-0.504023

>  <r_i_glide_hbond>  (210) 
-0.061046

>  <r_i_glide_metal>  (210) 
-0

>  <r_i_glide_rewards>  (210) 
-1.69968

>  <r_i_glide_evdw>  (210) 
-16.2716

>  <r_i_glide_ecoul>  (210) 
-5.79754

>  <r_i_glide_erotb>  (210) 
0

>  <r_i_glide_esite>  (210) 
0

>  <r_i_glide_emodel>  (210) 
-27.0524

>  <r_i_glide_energy>  (210) 
-22.0692

>  <r_i_glide_einternal>  (210) 
1.37014

>  <r_i_glide_intrahb_reward>  (210) 
-0

>  <i_i_glide_confnum>  (210) 
1

>  <i_i_glide_posenum>  (210) 
17

>  <r_i_glide_eff_state_penalty>  (210) 
0

>  <ligand_id>  (210) 
70

>  <original_smiles>  (210) 
CC1CC2C(=O)OC3CC4(C(O)CCC4C32C)C1O

>  <smiles>  (210) 
[H]OC1([H])C([H])([H])C([H])([H])C2([H])C13C([H])([H])C1([H])OC(=O)C([H])(C([H])([H])C([H])(C([H])([H])[H])C3([H])O[H])C12C([H])([H])[H]

$$$$
70:0:2
     RDKit          3D

 41 44  0  0  1  0  0  0  0  0999 V2000
    1.8806   -4.6493    2.3501 C   0  0  0  0  0  0  0  0  0  0  0  0
    3.1199   -4.3805    1.4655 C   0  0  2  0  0  0  0  0  0  0  0  0
    4.0432   -3.4093    2.2465 C   0  0  0  0  0  0  0  0  0  0  0  0
    5.5261   -3.3302    1.8284 C   0  0  1  0  0  0  0  0  0  0  0  0
    6.2124   -4.6948    1.8973 C   0  0  0  0  0  0  0  0  0  0  0  0
    6.3506   -5.3330    2.9337 O   0  0  0  0  0  0  0  0  0  0  0  0
    6.6002   -5.0387    0.6786 O   0  0  0  0  0  0  0  0  0  0  0  0
    6.2103   -4.1234   -0.3202 C   0  0  1  0  0  0  0  0  0  0  0  0
    4.9360   -4.5931   -1.0201 C   0  0  0  0  0  0  0  0  0  0  0  0
    3.8815   -3.4612   -0.9142 C   0  0  2  0  0  0  0  0  0  0  0  0
    3.4589   -3.0367   -2.3481 C   0  0  1  0  0  0  0  0  0  0  0  0
    2.2739   -2.3066   -2.4538 O   0  0  0  0  0  0  0  0  0  0  0  0
    4.5827   -2.1476   -2.8572 C   0  0  0  0  0  0  0  0  0  0  0  0
    5.0210   -1.3694   -1.6284 C   0  0  0  0  0  0  0  0  0  0  0  0
    4.6708   -2.2365   -0.3863 C   0  0  2  0  0  0  0  0  0  0  0  0
    5.8615   -2.8271    0.4066 C   0  0  1  0  0  0  0  0  0  0  0  0
    7.0960   -1.9057    0.4812 C   0  0  0  0  0  0  0  0  0  0  0  0
    2.7116   -3.8515    0.0478 C   0  0  1  0  0  0  0  0  0  0  0  0
    1.8599   -4.8086   -0.5552 O   0  0  0  0  0  0  0  0  0  0  0  0
    1.3182   -3.7246    2.4979 H   0  0  0  0  0  0  0  0  0  0  0  0
    2.1445   -5.0325    3.3339 H   0  0  0  0  0  0  0  0  0  0  0  0
    1.2145   -5.3833    1.8915 H   0  0  0  0  0  0  0  0  0  0  0  0
    3.6084   -5.3484    1.3666 H   0  0  0  0  0  0  0  0  0  0  0  0
    3.5998   -2.4139    2.2654 H   0  0  0  0  0  0  0  0  0  0  0  0
    4.0481   -3.7287    3.2928 H   0  0  0  0  0  0  0  0  0  0  0  0
    6.0264   -2.6953    2.5543 H   0  0  0  0  0  0  0  0  0  0  0  0
    7.0198   -3.9479   -1.0401 H   0  0  0  0  0  0  0  0  0  0  0  0
    5.1735   -4.8137   -2.0589 H   0  0  0  0  0  0  0  0  0  0  0  0
    4.5940   -5.5418   -0.6096 H   0  0  0  0  0  0  0  0  0  0  0  0
    3.3315   -3.8815   -3.0158 H   0  0  0  0  0  0  0  0  0  0  0  0
    2.0450   -1.8398   -1.6471 H   0  0  0  0  0  0  0  0  0  0  0  0
    5.4095   -2.7394   -3.2450 H   0  0  0  0  0  0  0  0  0  0  0  0
    4.2539   -1.4932   -3.6579 H   0  0  0  0  0  0  0  0  0  0  0  0
    6.0577   -1.0648   -1.7162 H   0  0  0  0  0  0  0  0  0  0  0  0
    4.4343   -0.4509   -1.5632 H   0  0  0  0  0  0  0  0  0  0  0  0
    4.0552   -1.6119    0.2615 H   0  0  0  0  0  0  0  0  0  0  0  0
    7.6056   -1.8234   -0.4778 H   0  0  0  0  0  0  0  0  0  0  0  0
    7.8273   -2.3399    1.1589 H   0  0  0  0  0  0  0  0  0  0  0  0
    6.8394   -0.9068    0.8388 H   0  0  0  0  0  0  0  0  0  0  0  0
    2.0995   -2.9609    0.1946 H   0  0  0  0  0  0  0  0  0  0  0  0
    2.3359   -5.2393   -1.2637 H   0  0  0  0  0  0  0  0  0  0  0  0
  1  2  1  0
  1 20  1  0
  1 21  1  0
  1 22  1  0
  2 18  1  0
  2  3  1  0
  2 23  1  6
  3  4  1  0
  3 24  1  0
  3 25  1  0
  4 16  1  0
  4  5  1  0
  4 26  1  1
  5  6  2  0
  5  7  1  0
  7  8  1  0
  8 16  1  0
  8  9  1  0
  8 27  1  6
 10  9  1  6
  9 28  1  0
  9 29  1  0
 10 15  1  0
 10 11  1  0
 10 18  1  0
 11 12  1  0
 11 13  1  0
 11 30  1  6
 12 31  1  0
 13 14  1  0
 13 32  1  0
 13 33  1  0
 14 15  1  0
 14 34  1  0
 14 35  1  0
 15 16  1  0
 15 36  1  1
 16 17  1  1
 17 37  1  0
 17 38  1  0
 17 39  1  0
 18 19  1  0
 18 40  1  1
 19 41  1  0
M  END
>  <i_m_ct_stereo_status>  (211) 
1

>  <s_m_source_file>  (211) 
/var/tmp/pbs.5076255.sched01/tmppxy1xzy0/80exjuxwr6.sdf

>  <i_m_source_file_index>  (211) 
18

>  <i_lp_mmshare_version>  (211) 
48012

>  <i_f3d_flags>  (211) 
0

>  <s_epik_input>  (211) 
W0NIMl0xW0NAQEhdMk9DKD1PKVtDQEhdKFtDSDJdW0NAQEhdKFtDSDNdKVtDQEBIXTNbT0hdKVtDQF0yKFtDSDNdKVtDQEhdKFtDQEBdMTM0KVtDSDJdW0NIMl1bQ0BASF00W09IXQ==

>  <s_epik_cmdline>  (211) 
J2VwaWtfcHl0aG9uJywgJy1waHQnLCAnMi4wJywgJy1waCcsICc3LjAnLCAnLXRuJywgJzgnLCAnLW1hJywgJzIwMCcsICctaW1hZScsICc8aW5maWxlLm1hZT4nLCAnLW9tYWUnLCAnPG91dGZpbGUubWFlPic=

>  <r_lp_tautomer_probability>  (211) 
1

>  <r_epik_Ionization_Penalty>  (211) 
6.18693e-07

>  <r_epik_Ionization_Penalty_Charging>  (211) 
0

>  <r_epik_Ionization_Penalty_Neutral>  (211) 
6.18693e-07

>  <r_epik_State_Penalty>  (211) 
-0

>  <r_epik_Charging_Adjusted_Penalty>  (211) 
0

>  <i_epik_Tot_Q>  (211) 
0

>  <i_epik_Tot_abs_Q>  (211) 
0

>  <s_epik_Chemistry_Notes>  (211) 
This compound has an ester and may undergo hydrolysis at high or low pH.

>  <s_lp_Force_Field>  (211) 
OPLS3e

>  <r_lp_Energy>  (211) 
23.6634

>  <b_lp_Chiralities_Consistent>  (211) 
1

>  <s_lp_Variant>  (211) 
70:0-1

>  <s_i_glide_gridfile>  (211) 
pfpi4k_grid

>  <i_i_glide_lignum>  (211) 
18

>  <i_i_glide_rotatable_bonds>  (211) 
2

>  <r_i_docking_score>  (211) 
-3.87391

>  <r_i_glide_ligand_efficiency>  (211) 
-0.20389

>  <r_i_glide_ligand_efficiency_sa>  (211) 
-0.544061

>  <r_i_glide_ligand_efficiency_ln>  (211) 
-0.98212

>  <r_i_glide_gscore>  (211) 
-3.87391

>  <r_i_glide_lipo>  (211) 
-0.254123

>  <r_i_glide_hbond>  (211) 
0

>  <r_i_glide_metal>  (211) 
-0

>  <r_i_glide_rewards>  (211) 
-1.66465

>  <r_i_glide_evdw>  (211) 
-13.9991

>  <r_i_glide_ecoul>  (211) 
-8.36793

>  <r_i_glide_erotb>  (211) 
0

>  <r_i_glide_esite>  (211) 
0

>  <r_i_glide_emodel>  (211) 
-26.3896

>  <r_i_glide_energy>  (211) 
-22.367

>  <r_i_glide_einternal>  (211) 
1.86199

>  <r_i_glide_intrahb_reward>  (211) 
-0

>  <i_i_glide_confnum>  (211) 
2

>  <i_i_glide_posenum>  (211) 
19

>  <r_i_glide_eff_state_penalty>  (211) 
0

>  <ligand_id>  (211) 
70

>  <original_smiles>  (211) 
CC1CC2C(=O)OC3CC4(C(O)CCC4C32C)C1O

>  <smiles>  (211) 
[H]OC1([H])C([H])([H])C([H])([H])C2([H])C13C([H])([H])C1([H])OC(=O)C([H])(C([H])([H])C([H])(C([H])([H])[H])C3([H])O[H])C12C([H])([H])[H]

$$$$
71:0:0
     RDKit          3D

 39 41  0  0  1  0  0  0  0  0999 V2000
    2.6113    0.4850    2.5034 C   0  0  0  0  0  0  0  0  0  0  0  0
    3.5678   -0.5209    1.9036 C   0  0  0  0  0  0  0  0  0  0  0  0
    4.2879   -0.2723    0.8026 C   0  0  0  0  0  0  0  0  0  0  0  0
    5.2654   -1.2877    0.2330 C   0  0  1  0  0  0  0  0  0  0  0  0
    5.8379   -2.1141    1.3960 C   0  0  0  0  0  0  0  0  0  0  0  0
    4.5846   -2.8722    1.8358 C   0  0  1  0  0  0  0  0  0  0  0  0
    3.6861   -1.8658    2.6125 C   0  0  0  0  0  0  0  0  0  0  0  0
    4.0332   -3.3750    0.4695 C   0  0  1  0  0  0  0  0  0  0  0  0
    4.4575   -4.8420    0.2438 C   0  0  0  0  0  0  0  0  0  0  0  0
    2.6203   -3.3649    0.4976 O   0  0  0  0  0  0  0  0  0  0  0  0
    4.5487   -2.3591   -0.6084 C   0  0  2  0  0  0  0  0  0  0  0  0
    5.5038   -2.9464   -1.6199 C   0  0  0  0  0  0  0  0  0  0  0  0
    5.0636   -2.7562   -2.8487 C   0  0  0  0  0  0  0  0  0  0  0  0
    3.7492   -2.0192   -2.8157 C   0  0  0  0  0  0  0  0  0  0  0  0
    3.8307   -0.6693   -3.5511 C   0  0  0  0  0  0  0  0  0  0  0  0
    2.6441   -2.8787   -3.4441 C   0  0  0  0  0  0  0  0  0  0  0  0
    3.4854   -1.7944   -1.4107 O   0  0  0  0  0  0  0  0  0  0  0  0
    2.8645    0.7067    3.5407 H   0  0  0  0  0  0  0  0  0  0  0  0
    1.5970    0.0907    2.4670 H   0  0  0  0  0  0  0  0  0  0  0  0
    2.6383    1.4181    1.9396 H   0  0  0  0  0  0  0  0  0  0  0  0
    4.2084    0.6700    0.2853 H   0  0  0  0  0  0  0  0  0  0  0  0
    6.0432   -0.7503   -0.3019 H   0  0  0  0  0  0  0  0  0  0  0  0
    6.6154   -2.8076    1.0572 H   0  0  0  0  0  0  0  0  0  0  0  0
    6.2580   -1.4962    2.1951 H   0  0  0  0  0  0  0  0  0  0  0  0
    4.8392   -3.7006    2.5000 H   0  0  0  0  0  0  0  0  0  0  0  0
    4.1287   -1.6788    3.5917 H   0  0  0  0  0  0  0  0  0  0  0  0
    2.6948   -2.2778    2.7804 H   0  0  0  0  0  0  0  0  0  0  0  0
    5.5430   -4.9641    0.2603 H   0  0  0  0  0  0  0  0  0  0  0  0
    4.0905   -5.2238   -0.7118 H   0  0  0  0  0  0  0  0  0  0  0  0
    4.0603   -5.4799    1.0339 H   0  0  0  0  0  0  0  0  0  0  0  0
    2.3458   -2.4783    0.2973 H   0  0  0  0  0  0  0  0  0  0  0  0
    6.4212   -3.4373   -1.3308 H   0  0  0  0  0  0  0  0  0  0  0  0
    5.5502   -3.0726   -3.7622 H   0  0  0  0  0  0  0  0  0  0  0  0
    4.0487   -0.8317   -4.6098 H   0  0  0  0  0  0  0  0  0  0  0  0
    4.6061   -0.0180   -3.1477 H   0  0  0  0  0  0  0  0  0  0  0  0
    2.8864   -0.1301   -3.4926 H   0  0  0  0  0  0  0  0  0  0  0  0
    2.8537   -3.0601   -4.5022 H   0  0  0  0  0  0  0  0  0  0  0  0
    1.6689   -2.4022   -3.3732 H   0  0  0  0  0  0  0  0  0  0  0  0
    2.5624   -3.8470   -2.9494 H   0  0  0  0  0  0  0  0  0  0  0  0
  1  2  1  0
  1 18  1  0
  1 19  1  0
  1 20  1  0
  2  7  1  0
  2  3  2  0
  3  4  1  0
  3 21  1  0
  4 11  1  0
  4  5  1  0
  4 22  1  6
  5  6  1  0
  5 23  1  0
  5 24  1  0
  6  7  1  0
  6  8  1  0
  6 25  1  1
  7 26  1  0
  7 27  1  0
  8  9  1  0
  8 10  1  1
  8 11  1  0
  9 28  1  0
  9 29  1  0
  9 30  1  0
 10 31  1  0
 11 17  1  6
 11 12  1  0
 12 13  2  0
 12 32  1  0
 13 14  1  0
 13 33  1  0
 14 15  1  0
 14 16  1  0
 14 17  1  0
 15 34  1  0
 15 35  1  0
 15 36  1  0
 16 37  1  0
 16 38  1  0
 16 39  1  0
M  END
>  <i_m_ct_stereo_status>  (212) 
1

>  <s_m_source_file>  (212) 
/var/tmp/pbs.5076255.sched01/tmppxy1xzy0/80exjuxwr6.sdf

>  <i_m_source_file_index>  (212) 
19

>  <i_lp_mmshare_version>  (212) 
48012

>  <i_f3d_flags>  (212) 
0

>  <s_epik_input>  (212) 
W0NIM11bQ0BAXTEoW09IXSlbQ0BASF0oW0NIMl0yKVtDSDJdQyhbQ0gzXSk9W0NIXVtDQEBIXTJbQ0BAXTEzW0NIXT1bQ0hdQyhPMykoW0NIM10pW0NIM10=

>  <s_epik_cmdline>  (212) 
J2VwaWtfcHl0aG9uJywgJy1waHQnLCAnMi4wJywgJy1waCcsICc3LjAnLCAnLXRuJywgJzgnLCAnLW1hJywgJzIwMCcsICctaW1hZScsICc8aW5maWxlLm1hZT4nLCAnLW9tYWUnLCAnPG91dGZpbGUubWFlPic=

>  <r_lp_tautomer_probability>  (212) 
1

>  <r_epik_Ionization_Penalty>  (212) 
4.17255e-08

>  <r_epik_Ionization_Penalty_Charging>  (212) 
0

>  <r_epik_Ionization_Penalty_Neutral>  (212) 
4.17255e-08

>  <r_epik_State_Penalty>  (212) 
-0

>  <r_epik_Charging_Adjusted_Penalty>  (212) 
0

>  <i_epik_Tot_Q>  (212) 
0

>  <i_epik_Tot_abs_Q>  (212) 
0

>  <s_lp_Force_Field>  (212) 
OPLS3e

>  <r_lp_Energy>  (212) 
22.3188

>  <b_lp_Chiralities_Consistent>  (212) 
1

>  <s_lp_Variant>  (212) 
71:0-1

>  <s_i_glide_gridfile>  (212) 
pfpi4k_grid

>  <i_i_glide_lignum>  (212) 
19

>  <i_i_glide_rotatable_bonds>  (212) 
1

>  <r_i_docking_score>  (212) 
-4.08252

>  <r_i_glide_ligand_efficiency>  (212) 
-0.240148

>  <r_i_glide_ligand_efficiency_sa>  (212) 
-0.617488

>  <r_i_glide_ligand_efficiency_ln>  (212) 
-1.06504

>  <r_i_glide_gscore>  (212) 
-4.08252

>  <r_i_glide_lipo>  (212) 
-1.01098

>  <r_i_glide_hbond>  (212) 
0

>  <r_i_glide_metal>  (212) 
-0

>  <r_i_glide_rewards>  (212) 
-1.81136

>  <r_i_glide_evdw>  (212) 
-26.5427

>  <r_i_glide_ecoul>  (212) 
0.4464

>  <r_i_glide_erotb>  (212) 
0

>  <r_i_glide_esite>  (212) 
0

>  <r_i_glide_emodel>  (212) 
-32.2447

>  <r_i_glide_energy>  (212) 
-26.0963

>  <r_i_glide_einternal>  (212) 
0.294579

>  <r_i_glide_intrahb_reward>  (212) 
-0

>  <i_i_glide_confnum>  (212) 
2

>  <i_i_glide_posenum>  (212) 
21

>  <r_i_glide_eff_state_penalty>  (212) 
0

>  <ligand_id>  (212) 
71

>  <original_smiles>  (212) 
CC1=CC2CC(C1)C(C)(O)C21C=CC(C)(C)O1

>  <smiles>  (212) 
[H]OC1(C([H])([H])[H])C2(OC(C([H])([H])[H])(C([H])([H])[H])C([H])=C2[H])C2([H])C([H])=C(C([H])([H])[H])C([H])([H])C1([H])C2([H])[H]

$$$$
71:0:1
     RDKit          3D

 39 41  0  0  1  0  0  0  0  0999 V2000
    2.9292    0.2283    2.6695 C   0  0  0  0  0  0  0  0  0  0  0  0
    3.8536   -0.7404    1.9625 C   0  0  0  0  0  0  0  0  0  0  0  0
    4.5114   -0.4362    0.8381 C   0  0  0  0  0  0  0  0  0  0  0  0
    5.4509   -1.4234    0.1666 C   0  0  1  0  0  0  0  0  0  0  0  0
    6.0963   -2.2979    1.2550 C   0  0  0  0  0  0  0  0  0  0  0  0
    4.8775   -3.0821    1.7365 C   0  0  1  0  0  0  0  0  0  0  0  0
    4.0196   -2.1146    2.6050 C   0  0  0  0  0  0  0  0  0  0  0  0
    4.2450   -3.5286    0.3849 C   0  0  1  0  0  0  0  0  0  0  0  0
    4.6627   -4.9794    0.0691 C   0  0  0  0  0  0  0  0  0  0  0  0
    2.8424   -3.5613    0.4933 O   0  0  0  0  0  0  0  0  0  0  0  0
    4.6803   -2.4596   -0.6797 C   0  0  2  0  0  0  0  0  0  0  0  0
    5.5770   -2.9981   -1.7735 C   0  0  0  0  0  0  0  0  0  0  0  0
    5.0505   -2.7569   -2.9593 C   0  0  0  0  0  0  0  0  0  0  0  0
    3.7471   -2.0271   -2.8154 C   0  0  0  0  0  0  0  0  0  0  0  0
    3.7968   -0.6473   -3.5005 C   0  0  0  0  0  0  0  0  0  0  0  0
    2.6147   -2.8641   -3.4267 C   0  0  0  0  0  0  0  0  0  0  0  0
    3.5721   -1.8797   -1.3930 O   0  0  0  0  0  0  0  0  0  0  0  0
    3.2423    0.4038    3.7005 H   0  0  0  0  0  0  0  0  0  0  0  0
    1.9165   -0.1723    2.6746 H   0  0  0  0  0  0  0  0  0  0  0  0
    2.9147    1.1856    2.1460 H   0  0  0  0  0  0  0  0  0  0  0  0
    4.4109    0.5331    0.3693 H   0  0  0  0  0  0  0  0  0  0  0  0
    6.1919   -0.8575   -0.3897 H   0  0  0  0  0  0  0  0  0  0  0  0
    6.8535   -2.9699    0.8400 H   0  0  0  0  0  0  0  0  0  0  0  0
    6.5639   -1.7152    2.0562 H   0  0  0  0  0  0  0  0  0  0  0  0
    5.1685   -3.9406    2.3494 H   0  0  0  0  0  0  0  0  0  0  0  0
    4.5153   -1.9746    3.5672 H   0  0  0  0  0  0  0  0  0  0  0  0
    3.0418   -2.5445    2.8064 H   0  0  0  0  0  0  0  0  0  0  0  0
    5.7472   -5.1029    0.0129 H   0  0  0  0  0  0  0  0  0  0  0  0
    4.2362   -5.3242   -0.8729 H   0  0  0  0  0  0  0  0  0  0  0  0
    4.3087   -5.6573    0.8502 H   0  0  0  0  0  0  0  0  0  0  0  0
    2.5112   -3.6193   -0.3926 H   0  0  0  0  0  0  0  0  0  0  0  0
    6.5220   -3.4923   -1.5631 H   0  0  0  0  0  0  0  0  0  0  0  0
    5.4862   -3.0329   -3.9055 H   0  0  0  0  0  0  0  0  0  0  0  0
    3.9418   -0.7583   -4.5769 H   0  0  0  0  0  0  0  0  0  0  0  0
    4.5929   -0.0056   -3.1126 H   0  0  0  0  0  0  0  0  0  0  0  0
    2.8539   -0.1176   -3.3613 H   0  0  0  0  0  0  0  0  0  0  0  0
    2.7669   -2.9865   -4.5019 H   0  0  0  0  0  0  0  0  0  0  0  0
    1.6433   -2.3954   -3.2756 H   0  0  0  0  0  0  0  0  0  0  0  0
    2.5697   -3.8556   -2.9798 H   0  0  0  0  0  0  0  0  0  0  0  0
  1  2  1  0
  1 18  1  0
  1 19  1  0
  1 20  1  0
  2  7  1  0
  2  3  2  0
  3  4  1  0
  3 21  1  0
  4 11  1  0
  4  5  1  0
  4 22  1  6
  5  6  1  0
  5 23  1  0
  5 24  1  0
  6  7  1  0
  6  8  1  0
  6 25  1  1
  7 26  1  0
  7 27  1  0
  8  9  1  0
  8 10  1  1
  8 11  1  0
  9 28  1  0
  9 29  1  0
  9 30  1  0
 10 31  1  0
 11 17  1  6
 11 12  1  0
 12 13  2  0
 12 32  1  0
 13 14  1  0
 13 33  1  0
 14 15  1  0
 14 16  1  0
 14 17  1  0
 15 34  1  0
 15 35  1  0
 15 36  1  0
 16 37  1  0
 16 38  1  0
 16 39  1  0
M  END
>  <i_m_ct_stereo_status>  (213) 
1

>  <s_m_source_file>  (213) 
/var/tmp/pbs.5076255.sched01/tmppxy1xzy0/80exjuxwr6.sdf

>  <i_m_source_file_index>  (213) 
19

>  <i_lp_mmshare_version>  (213) 
48012

>  <i_f3d_flags>  (213) 
0

>  <s_epik_input>  (213) 
W0NIM11bQ0BAXTEoW09IXSlbQ0BASF0oW0NIMl0yKVtDSDJdQyhbQ0gzXSk9W0NIXVtDQEBIXTJbQ0BAXTEzW0NIXT1bQ0hdQyhPMykoW0NIM10pW0NIM10=

>  <s_epik_cmdline>  (213) 
J2VwaWtfcHl0aG9uJywgJy1waHQnLCAnMi4wJywgJy1waCcsICc3LjAnLCAnLXRuJywgJzgnLCAnLW1hJywgJzIwMCcsICctaW1hZScsICc8aW5maWxlLm1hZT4nLCAnLW9tYWUnLCAnPG91dGZpbGUubWFlPic=

>  <r_lp_tautomer_probability>  (213) 
1

>  <r_epik_Ionization_Penalty>  (213) 
4.17255e-08

>  <r_epik_Ionization_Penalty_Charging>  (213) 
0

>  <r_epik_Ionization_Penalty_Neutral>  (213) 
4.17255e-08

>  <r_epik_State_Penalty>  (213) 
-0

>  <r_epik_Charging_Adjusted_Penalty>  (213) 
0

>  <i_epik_Tot_Q>  (213) 
0

>  <i_epik_Tot_abs_Q>  (213) 
0

>  <s_lp_Force_Field>  (213) 
OPLS3e

>  <r_lp_Energy>  (213) 
22.3188

>  <b_lp_Chiralities_Consistent>  (213) 
1

>  <s_lp_Variant>  (213) 
71:0-1

>  <s_i_glide_gridfile>  (213) 
pfpi4k_grid

>  <i_i_glide_lignum>  (213) 
19

>  <i_i_glide_rotatable_bonds>  (213) 
1

>  <r_i_docking_score>  (213) 
-4.03596

>  <r_i_glide_ligand_efficiency>  (213) 
-0.237409

>  <r_i_glide_ligand_efficiency_sa>  (213) 
-0.610446

>  <r_i_glide_ligand_efficiency_ln>  (213) 
-1.05289

>  <r_i_glide_gscore>  (213) 
-4.03596

>  <r_i_glide_lipo>  (213) 
-1.04421

>  <r_i_glide_hbond>  (213) 
0

>  <r_i_glide_metal>  (213) 
-0

>  <r_i_glide_rewards>  (213) 
-1.81136

>  <r_i_glide_evdw>  (213) 
-26.3228

>  <r_i_glide_ecoul>  (213) 
0.904987

>  <r_i_glide_erotb>  (213) 
0

>  <r_i_glide_esite>  (213) 
0

>  <r_i_glide_emodel>  (213) 
-31.5914

>  <r_i_glide_energy>  (213) 
-25.4178

>  <r_i_glide_einternal>  (213) 
0.135387

>  <r_i_glide_intrahb_reward>  (213) 
-0

>  <i_i_glide_confnum>  (213) 
1

>  <i_i_glide_posenum>  (213) 
14

>  <r_i_glide_eff_state_penalty>  (213) 
0

>  <ligand_id>  (213) 
71

>  <original_smiles>  (213) 
CC1=CC2CC(C1)C(C)(O)C21C=CC(C)(C)O1

>  <smiles>  (213) 
[H]OC1(C([H])([H])[H])C2(OC(C([H])([H])[H])(C([H])([H])[H])C([H])=C2[H])C2([H])C([H])=C(C([H])([H])[H])C([H])([H])C1([H])C2([H])[H]

$$$$
71:0:2
     RDKit          3D

 39 41  0  0  1  0  0  0  0  0999 V2000
    1.5612   -1.0795    2.6658 C   0  0  0  0  0  0  0  0  0  0  0  0
    2.7807   -1.7674    2.1010 C   0  0  0  0  0  0  0  0  0  0  0  0
    3.6177   -1.1827    1.2246 C   0  0  0  0  0  0  0  0  0  0  0  0
    4.8512   -1.8968    0.6984 C   0  0  1  0  0  0  0  0  0  0  0  0
    5.3733   -2.8467    1.7951 C   0  0  0  0  0  0  0  0  0  0  0  0
    4.2327   -3.8683    1.8373 C   0  0  1  0  0  0  0  0  0  0  0  0
    3.0393   -3.1969    2.5736 C   0  0  0  0  0  0  0  0  0  0  0  0
    4.0207   -4.1672    0.3229 C   0  0  1  0  0  0  0  0  0  0  0  0
    4.7651   -5.4614   -0.0549 C   0  0  0  0  0  0  0  0  0  0  0  0
    2.6630   -4.4624    0.0695 O   0  0  0  0  0  0  0  0  0  0  0  0
    4.4954   -2.8754   -0.4407 C   0  0  2  0  0  0  0  0  0  0  0  0
    5.7027   -3.0755   -1.3280 C   0  0  0  0  0  0  0  0  0  0  0  0
    5.4447   -2.7005   -2.5678 C   0  0  0  0  0  0  0  0  0  0  0  0
    4.0264   -2.2108   -2.6765 C   0  0  0  0  0  0  0  0  0  0  0  0
    3.9706   -0.7412   -3.1334 C   0  0  0  0  0  0  0  0  0  0  0  0
    3.2304   -3.0772   -3.6678 C   0  0  0  0  0  0  0  0  0  0  0  0
    3.4905   -2.3451   -1.3373 O   0  0  0  0  0  0  0  0  0  0  0  0
    1.5918   -1.0426    3.7557 H   0  0  0  0  0  0  0  0  0  0  0  0
    0.6632   -1.6182    2.3662 H   0  0  0  0  0  0  0  0  0  0  0  0
    1.4882   -0.0589    2.2881 H   0  0  0  0  0  0  0  0  0  0  0  0
    3.4534   -0.1759    0.8691 H   0  0  0  0  0  0  0  0  0  0  0  0
    5.5958   -1.1504    0.4283 H   0  0  0  0  0  0  0  0  0  0  0  0
    6.3151   -3.3241    1.5026 H   0  0  0  0  0  0  0  0  0  0  0  0
    5.5303   -2.3513    2.7602 H   0  0  0  0  0  0  0  0  0  0  0  0
    4.5267   -4.7655    2.3886 H   0  0  0  0  0  0  0  0  0  0  0  0
    3.2600   -3.1536    3.6416 H   0  0  0  0  0  0  0  0  0  0  0  0
    2.1335   -3.7885    2.4632 H   0  0  0  0  0  0  0  0  0  0  0  0
    5.8348   -5.4086    0.1545 H   0  0  0  0  0  0  0  0  0  0  0  0
    4.6431   -5.6927   -1.1147 H   0  0  0  0  0  0  0  0  0  0  0  0
    4.3740   -6.3078    0.5109 H   0  0  0  0  0  0  0  0  0  0  0  0
    2.6009   -4.6916   -0.8471 H   0  0  0  0  0  0  0  0  0  0  0  0
    6.6390   -3.4545   -0.9545 H   0  0  0  0  0  0  0  0  0  0  0  0
    6.1341   -2.7239   -3.4008 H   0  0  0  0  0  0  0  0  0  0  0  0
    4.3787   -0.6456   -4.1428 H   0  0  0  0  0  0  0  0  0  0  0  0
    4.5306   -0.0691   -2.4851 H   0  0  0  0  0  0  0  0  0  0  0  0
    2.9415   -0.3804   -3.1695 H   0  0  0  0  0  0  0  0  0  0  0  0
    3.6300   -2.9668   -4.6786 H   0  0  0  0  0  0  0  0  0  0  0  0
    2.1752   -2.7948   -3.6956 H   0  0  0  0  0  0  0  0  0  0  0  0
    3.2906   -4.1357   -3.4274 H   0  0  0  0  0  0  0  0  0  0  0  0
  1  2  1  0
  1 18  1  0
  1 19  1  0
  1 20  1  0
  2  7  1  0
  2  3  2  0
  3  4  1  0
  3 21  1  0
  4 11  1  0
  4  5  1  0
  4 22  1  6
  5  6  1  0
  5 23  1  0
  5 24  1  0
  6  7  1  0
  6  8  1  0
  6 25  1  1
  7 26  1  0
  7 27  1  0
  8  9  1  0
  8 10  1  1
  8 11  1  0
  9 28  1  0
  9 29  1  0
  9 30  1  0
 10 31  1  0
 11 17  1  6
 11 12  1  0
 12 13  2  0
 12 32  1  0
 13 14  1  0
 13 33  1  0
 14 15  1  0
 14 16  1  0
 14 17  1  0
 15 34  1  0
 15 35  1  0
 15 36  1  0
 16 37  1  0
 16 38  1  0
 16 39  1  0
M  END
>  <i_m_ct_stereo_status>  (214) 
1

>  <s_m_source_file>  (214) 
/var/tmp/pbs.5076255.sched01/tmppxy1xzy0/80exjuxwr6.sdf

>  <i_m_source_file_index>  (214) 
19

>  <i_lp_mmshare_version>  (214) 
48012

>  <i_f3d_flags>  (214) 
0

>  <s_epik_input>  (214) 
W0NIM11bQ0BAXTEoW09IXSlbQ0BASF0oW0NIMl0yKVtDSDJdQyhbQ0gzXSk9W0NIXVtDQEBIXTJbQ0BAXTEzW0NIXT1bQ0hdQyhPMykoW0NIM10pW0NIM10=

>  <s_epik_cmdline>  (214) 
J2VwaWtfcHl0aG9uJywgJy1waHQnLCAnMi4wJywgJy1waCcsICc3LjAnLCAnLXRuJywgJzgnLCAnLW1hJywgJzIwMCcsICctaW1hZScsICc8aW5maWxlLm1hZT4nLCAnLW9tYWUnLCAnPG91dGZpbGUubWFlPic=

>  <r_lp_tautomer_probability>  (214) 
1

>  <r_epik_Ionization_Penalty>  (214) 
4.17255e-08

>  <r_epik_Ionization_Penalty_Charging>  (214) 
0

>  <r_epik_Ionization_Penalty_Neutral>  (214) 
4.17255e-08

>  <r_epik_State_Penalty>  (214) 
-0

>  <r_epik_Charging_Adjusted_Penalty>  (214) 
0

>  <i_epik_Tot_Q>  (214) 
0

>  <i_epik_Tot_abs_Q>  (214) 
0

>  <s_lp_Force_Field>  (214) 
OPLS3e

>  <r_lp_Energy>  (214) 
22.3188

>  <b_lp_Chiralities_Consistent>  (214) 
1

>  <s_lp_Variant>  (214) 
71:0-1

>  <s_i_glide_gridfile>  (214) 
pfpi4k_grid

>  <i_i_glide_lignum>  (214) 
19

>  <i_i_glide_rotatable_bonds>  (214) 
1

>  <r_i_docking_score>  (214) 
-3.88514

>  <r_i_glide_ligand_efficiency>  (214) 
-0.228538

>  <r_i_glide_ligand_efficiency_sa>  (214) 
-0.587635

>  <r_i_glide_ligand_efficiency_ln>  (214) 
-1.01355

>  <r_i_glide_gscore>  (214) 
-3.88514

>  <r_i_glide_lipo>  (214) 
-0.734073

>  <r_i_glide_hbond>  (214) 
0

>  <r_i_glide_metal>  (214) 
-0

>  <r_i_glide_rewards>  (214) 
-1.81136

>  <r_i_glide_evdw>  (214) 
-24.2446

>  <r_i_glide_ecoul>  (214) 
-0.849871

>  <r_i_glide_erotb>  (214) 
0

>  <r_i_glide_esite>  (214) 
0

>  <r_i_glide_emodel>  (214) 
-31.2023

>  <r_i_glide_energy>  (214) 
-25.0944

>  <r_i_glide_einternal>  (214) 
0.0405316

>  <r_i_glide_intrahb_reward>  (214) 
-0

>  <i_i_glide_confnum>  (214) 
2

>  <i_i_glide_posenum>  (214) 
33

>  <r_i_glide_eff_state_penalty>  (214) 
0

>  <ligand_id>  (214) 
71

>  <original_smiles>  (214) 
CC1=CC2CC(C1)C(C)(O)C21C=CC(C)(C)O1

>  <smiles>  (214) 
[H]OC1(C([H])([H])[H])C2(OC(C([H])([H])[H])(C([H])([H])[H])C([H])=C2[H])C2([H])C([H])=C(C([H])([H])[H])C([H])([H])C1([H])C2([H])[H]

$$$$
72:0:0
     RDKit          3D

 46 51  0  0  1  0  0  0  0  0999 V2000
    4.8828   -0.3027    2.6312 O   0  0  0  0  0  0  0  0  0  0  0  0
    4.9586   -1.4530    2.2130 C   0  0  0  0  0  0  0  0  0  0  0  0
    5.7937   -1.9427    0.9768 C   0  0  0  0  0  0  0  0  0  0  0  0
    5.4192   -3.4803    0.8593 C   0  0  2  0  0  0  0  0  0  0  0  0
    6.3775   -4.1774    1.6512 O   0  0  0  0  0  0  0  0  0  0  0  0
    5.1706   -4.4099   -0.3757 C   0  0  1  0  0  0  0  0  0  0  0  0
    4.5957   -5.8120    0.1240 C   0  0  0  0  0  0  0  0  0  0  0  0
    3.5628   -5.8101    1.2936 C   0  0  0  0  0  0  0  0  0  0  0  0
    2.7325   -6.8131    1.8343 C   0  0  0  0  0  0  0  0  0  0  0  0
    1.8962   -6.4924    2.9496 C   0  0  0  0  0  0  0  0  0  0  0  0
    1.8858   -5.1968    3.5565 C   0  0  0  0  0  0  0  0  0  0  0  0
    1.0856   -4.9499    4.6304 O   0  0  0  0  0  0  0  0  0  0  0  0
    2.7182   -4.1821    3.0430 C   0  0  0  0  0  0  0  0  0  0  0  0
    3.4500   -4.5877    1.9481 C   0  0  0  0  0  0  0  0  0  0  0  0
    4.0606   -3.3750    1.4834 C   0  0  2  0  0  0  0  0  0  0  0  0
    3.0363   -2.7068    0.4868 C   0  0  0  0  0  0  0  0  0  0  0  0
    2.8887   -3.5510   -0.7828 C   0  0  0  0  0  0  0  0  0  0  0  0
    4.2235   -3.8570   -1.3870 N   0  0  1  0  0  0  0  0  0  0  0  0
    4.7997   -2.7501   -2.2171 C   0  0  0  0  0  0  0  0  0  0  0  0
    4.0719   -2.5853   -3.5362 C   0  0  0  0  0  0  0  0  0  0  0  0
    3.9013   -1.1973   -4.1457 C   0  0  0  0  0  0  0  0  0  0  0  0
    2.7076   -1.9200   -3.6164 C   0  0  0  0  0  0  0  0  0  0  0  0
    4.2815   -2.6880    2.7972 C   0  0  2  0  0  0  0  0  0  0  0  0
    2.9766   -2.8425    3.3951 O   0  0  0  0  0  0  0  0  0  0  0  0
    5.5048   -1.3425    0.1187 H   0  0  0  0  0  0  0  0  0  0  0  0
    6.8611   -1.7861    1.1472 H   0  0  0  0  0  0  0  0  0  0  0  0
    6.4145   -3.8027    2.5250 H   0  0  0  0  0  0  0  0  0  0  0  0
    6.1149   -4.5968   -0.8714 H   0  0  0  0  0  0  0  0  0  0  0  0
    4.1762   -6.3576   -0.7154 H   0  0  0  0  0  0  0  0  0  0  0  0
    5.4270   -6.4242    0.4644 H   0  0  0  0  0  0  0  0  0  0  0  0
    2.7317   -7.8064    1.4079 H   0  0  0  0  0  0  0  0  0  0  0  0
    1.2590   -7.2661    3.3487 H   0  0  0  0  0  0  0  0  0  0  0  0
    1.2334   -4.0871    4.9943 H   0  0  0  0  0  0  0  0  0  0  0  0
    2.0526   -2.5751    0.9376 H   0  0  0  0  0  0  0  0  0  0  0  0
    3.3083   -1.6942    0.1813 H   0  0  0  0  0  0  0  0  0  0  0  0
    2.3916   -4.4936   -0.5588 H   0  0  0  0  0  0  0  0  0  0  0  0
    2.1761   -3.0879   -1.4620 H   0  0  0  0  0  0  0  0  0  0  0  0
    4.7755   -1.8039   -1.7051 H   0  0  0  0  0  0  0  0  0  0  0  0
    5.8445   -2.9635   -2.4478 H   0  0  0  0  0  0  0  0  0  0  0  0
    4.2776   -3.3750   -4.2559 H   0  0  0  0  0  0  0  0  0  0  0  0
    4.2127   -0.3367   -3.5600 H   0  0  0  0  0  0  0  0  0  0  0  0
    3.9067   -1.0560   -5.2226 H   0  0  0  0  0  0  0  0  0  0  0  0
    2.0029   -2.3911   -4.3031 H   0  0  0  0  0  0  0  0  0  0  0  0
    2.2597   -1.3961   -2.7739 H   0  0  0  0  0  0  0  0  0  0  0  0
    5.0107   -3.1962    3.4318 H   0  0  0  0  0  0  0  0  0  0  0  0
    4.0446   -4.5995   -2.0326 H   0  0  0  0  0  0  0  0  0  0  0  0
  1  2  2  0
  2 23  1  0
  2  3  1  0
  3  4  1  0
  3 25  1  0
  3 26  1  0
  4 15  1  0
  4  5  1  1
  4  6  1  0
  5 27  1  0
  6 18  1  0
  6  7  1  0
  6 28  1  6
  7  8  1  0
  7 29  1  0
  7 30  1  0
  8 14  2  0
  8  9  1  0
  9 10  2  0
  9 31  1  0
 10 11  1  0
 10 32  1  0
 11 12  1  0
 11 13  2  0
 12 33  1  0
 13 24  1  0
 13 14  1  0
 14 15  1  0
 15 16  1  6
 15 23  1  0
 16 17  1  0
 16 34  1  0
 16 35  1  0
 17 18  1  0
 17 36  1  0
 17 37  1  0
 18 19  1  0
 18 46  1  6
 19 20  1  0
 19 38  1  0
 19 39  1  0
 20 22  1  0
 20 21  1  0
 20 40  1  0
 21 22  1  0
 21 41  1  0
 21 42  1  0
 22 43  1  0
 22 44  1  0
 23 24  1  0
 23 45  1  1
M  CHG  1  18   1
M  END
>  <i_m_ct_stereo_status>  (215) 
1

>  <s_m_source_file>  (215) 
/var/tmp/pbs.5076255.sched01/tmppxy1xzy0/80exjuxwr6.sdf

>  <i_m_source_file_index>  (215) 
20

>  <i_lp_mmshare_version>  (215) 
48012

>  <i_f3d_flags>  (215) 
0

>  <s_epik_input>  (215) 
Tz1DKFtDSDJdMSlbQ0BIXTJPYyhjKFtPSF0pW2NIXVtjSF0zKWM0YzNbQ0gyXVtDQEhdKFtDQEBdMShbQ0BdMjQ1KVtPSF0pTihbQ0gyXVtDSDJdNSlbQ0gyXVtDSF02W0NIMl1bQ0gyXTY=

>  <s_epik_cmdline>  (215) 
J2VwaWtfcHl0aG9uJywgJy1waHQnLCAnMi4wJywgJy1waCcsICc3LjAnLCAnLXRuJywgJzgnLCAnLW1hJywgJzIwMCcsICctaW1hZScsICc8aW5maWxlLm1hZT4nLCAnLW9tYWUnLCAnPG91dGZpbGUubWFlPic=

>  <r_lp_tautomer_probability>  (215) 
1

>  <r_epik_Ionization_Penalty>  (215) 
0.0941967

>  <r_epik_Ionization_Penalty_Charging>  (215) 
0.0626358

>  <r_epik_Ionization_Penalty_Neutral>  (215) 
0.0315609

>  <r_epik_State_Penalty>  (215) 
0.0782903

>  <r_epik_Charging_Adjusted_Penalty>  (215) 
0.140926

>  <i_epik_Tot_Q>  (215) 
1

>  <i_epik_Tot_abs_Q>  (215) 
1

>  <s_lp_Force_Field>  (215) 
OPLS3e

>  <r_lp_Energy>  (215) 
98.9787

>  <b_lp_Chiralities_Consistent>  (215) 
1

>  <s_lp_Variant>  (215) 
72:0-1

>  <s_i_glide_gridfile>  (215) 
pfpi4k_grid

>  <i_i_glide_lignum>  (215) 
20

>  <i_i_glide_rotatable_bonds>  (215) 
4

>  <r_i_docking_score>  (215) 
-3.85815

>  <r_i_glide_ligand_efficiency>  (215) 
-0.160756

>  <r_i_glide_ligand_efficiency_sa>  (215) 
-0.463701

>  <r_i_glide_ligand_efficiency_ln>  (215) 
-0.923431

>  <r_i_glide_gscore>  (215) 
-3.85815

>  <r_i_glide_lipo>  (215) 
-0.839674

>  <r_i_glide_hbond>  (215) 
-0.000215437

>  <r_i_glide_metal>  (215) 
-0

>  <r_i_glide_rewards>  (215) 
-1.28036

>  <r_i_glide_evdw>  (215) 
-27.2041

>  <r_i_glide_ecoul>  (215) 
-4.62497

>  <r_i_glide_erotb>  (215) 
0.348325

>  <r_i_glide_esite>  (215) 
-0.0322706

>  <r_i_glide_emodel>  (215) 
-38.7457

>  <r_i_glide_energy>  (215) 
-31.8291

>  <r_i_glide_einternal>  (215) 
1.2207

>  <r_i_glide_intrahb_reward>  (215) 
-0

>  <i_i_glide_confnum>  (215) 
1

>  <i_i_glide_posenum>  (215) 
36

>  <r_i_glide_eff_state_penalty>  (215) 
0

>  <ligand_id>  (215) 
72

>  <original_smiles>  (215) 
O=C1CC2(O)C3Cc4ccc(O)c5c4C2(CCN3CC2CC2)C1O5

>  <smiles>  (215) 
[H]Oc1c([H])c([H])c2c3c1OC1([H])C(=O)C([H])([H])C4(O[H])C31C([H])([H])C([H])([H])[N+]([H])(C([H])([H])C1([H])C([H])([H])C1([H])[H])C4([H])C2([H])[H]

$$$$
72:0:1
     RDKit          3D

 46 51  0  0  1  0  0  0  0  0999 V2000
    4.8822   -0.3280    2.6655 O   0  0  0  0  0  0  0  0  0  0  0  0
    4.9682   -1.4778    2.2459 C   0  0  0  0  0  0  0  0  0  0  0  0
    5.7933   -1.9529    0.9995 C   0  0  0  0  0  0  0  0  0  0  0  0
    5.4233   -3.4900    0.8750 C   0  0  2  0  0  0  0  0  0  0  0  0
    6.3835   -4.1665    1.6785 O   0  0  0  0  0  0  0  0  0  0  0  0
    5.1763   -4.4143   -0.3644 C   0  0  1  0  0  0  0  0  0  0  0  0
    4.6119   -5.8225    0.1295 C   0  0  0  0  0  0  0  0  0  0  0  0
    3.5888   -5.8341    1.3092 C   0  0  0  0  0  0  0  0  0  0  0  0
    2.7686   -6.8437    1.8511 C   0  0  0  0  0  0  0  0  0  0  0  0
    1.9372   -6.5356    2.9738 C   0  0  0  0  0  0  0  0  0  0  0  0
    1.9176   -5.2431    3.5901 C   0  0  0  0  0  0  0  0  0  0  0  0
    1.1225   -5.0112    4.6719 O   0  0  0  0  0  0  0  0  0  0  0  0
    2.7395   -4.2189    3.0732 C   0  0  0  0  0  0  0  0  0  0  0  0
    3.4688   -4.6149    1.9702 C   0  0  0  0  0  0  0  0  0  0  0  0
    4.0700   -3.3964    1.5101 C   0  0  2  0  0  0  0  0  0  0  0  0
    3.0370   -2.7261    0.5234 C   0  0  0  0  0  0  0  0  0  0  0  0
    2.8877   -3.5619   -0.7521 C   0  0  0  0  0  0  0  0  0  0  0  0
    4.2209   -3.8557   -1.3659 N   0  0  1  0  0  0  0  0  0  0  0  0
    4.7863   -2.7432   -2.1909 C   0  0  0  0  0  0  0  0  0  0  0  0
    4.0625   -2.5849   -3.5134 C   0  0  0  0  0  0  0  0  0  0  0  0
    3.8712   -1.1994   -4.1181 C   0  0  0  0  0  0  0  0  0  0  0  0
    2.6874   -1.9429   -3.5948 C   0  0  0  0  0  0  0  0  0  0  0  0
    4.3012   -2.7184    2.8279 C   0  0  2  0  0  0  0  0  0  0  0  0
    2.9985   -2.8802    3.4277 O   0  0  0  0  0  0  0  0  0  0  0  0
    5.4965   -1.3463    0.1490 H   0  0  0  0  0  0  0  0  0  0  0  0
    6.8597   -1.7955    1.1684 H   0  0  0  0  0  0  0  0  0  0  0  0
    6.0844   -5.0552    1.8234 H   0  0  0  0  0  0  0  0  0  0  0  0
    6.1200   -4.5913   -0.8680 H   0  0  0  0  0  0  0  0  0  0  0  0
    4.1866   -6.3660   -0.7103 H   0  0  0  0  0  0  0  0  0  0  0  0
    5.4467   -6.4356    0.4583 H   0  0  0  0  0  0  0  0  0  0  0  0
    2.7705   -7.8334    1.4156 H   0  0  0  0  0  0  0  0  0  0  0  0
    1.3094   -7.3225    3.3613 H   0  0  0  0  0  0  0  0  0  0  0  0
    0.7124   -5.7999    5.0031 H   0  0  0  0  0  0  0  0  0  0  0  0
    2.0561   -2.6032    0.9819 H   0  0  0  0  0  0  0  0  0  0  0  0
    3.3032   -1.7099    0.2245 H   0  0  0  0  0  0  0  0  0  0  0  0
    2.3965   -4.5090   -0.5303 H   0  0  0  0  0  0  0  0  0  0  0  0
    2.1717   -3.0941   -1.4231 H   0  0  0  0  0  0  0  0  0  0  0  0
    4.7500   -1.7976   -1.6746 H   0  0  0  0  0  0  0  0  0  0  0  0
    5.8351   -2.9419   -2.4174 H   0  0  0  0  0  0  0  0  0  0  0  0
    4.2817   -3.3717   -4.2328 H   0  0  0  0  0  0  0  0  0  0  0  0
    4.1696   -0.3364   -3.5284 H   0  0  0  0  0  0  0  0  0  0  0  0
    3.8809   -1.0557   -5.1947 H   0  0  0  0  0  0  0  0  0  0  0  0
    1.9920   -2.4214   -4.2855 H   0  0  0  0  0  0  0  0  0  0  0  0
    2.2282   -1.4280   -2.7522 H   0  0  0  0  0  0  0  0  0  0  0  0
    5.0376   -3.2261    3.4552 H   0  0  0  0  0  0  0  0  0  0  0  0
    4.0411   -4.5971   -2.0186 H   0  0  0  0  0  0  0  0  0  0  0  0
  1  2  2  0
  2 23  1  0
  2  3  1  0
  3  4  1  0
  3 25  1  0
  3 26  1  0
  4 15  1  0
  4  5  1  1
  4  6  1  0
  5 27  1  0
  6 18  1  0
  6  7  1  0
  6 28  1  6
  7  8  1  0
  7 29  1  0
  7 30  1  0
  8 14  2  0
  8  9  1  0
  9 10  2  0
  9 31  1  0
 10 11  1  0
 10 32  1  0
 11 12  1  0
 11 13  2  0
 12 33  1  0
 13 24  1  0
 13 14  1  0
 14 15  1  0
 15 16  1  6
 15 23  1  0
 16 17  1  0
 16 34  1  0
 16 35  1  0
 17 18  1  0
 17 36  1  0
 17 37  1  0
 18 19  1  0
 18 46  1  6
 19 20  1  0
 19 38  1  0
 19 39  1  0
 20 22  1  0
 20 21  1  0
 20 40  1  0
 21 22  1  0
 21 41  1  0
 21 42  1  0
 22 43  1  0
 22 44  1  0
 23 24  1  0
 23 45  1  1
M  CHG  1  18   1
M  END
>  <i_m_ct_stereo_status>  (216) 
1

>  <s_m_source_file>  (216) 
/var/tmp/pbs.5076255.sched01/tmppxy1xzy0/80exjuxwr6.sdf

>  <i_m_source_file_index>  (216) 
20

>  <i_lp_mmshare_version>  (216) 
48012

>  <i_f3d_flags>  (216) 
0

>  <s_epik_input>  (216) 
Tz1DKFtDSDJdMSlbQ0BIXTJPYyhjKFtPSF0pW2NIXVtjSF0zKWM0YzNbQ0gyXVtDQEhdKFtDQEBdMShbQ0BdMjQ1KVtPSF0pTihbQ0gyXVtDSDJdNSlbQ0gyXVtDSF02W0NIMl1bQ0gyXTY=

>  <s_epik_cmdline>  (216) 
J2VwaWtfcHl0aG9uJywgJy1waHQnLCAnMi4wJywgJy1waCcsICc3LjAnLCAnLXRuJywgJzgnLCAnLW1hJywgJzIwMCcsICctaW1hZScsICc8aW5maWxlLm1hZT4nLCAnLW9tYWUnLCAnPG91dGZpbGUubWFlPic=

>  <r_lp_tautomer_probability>  (216) 
1

>  <r_epik_Ionization_Penalty>  (216) 
0.0941967

>  <r_epik_Ionization_Penalty_Charging>  (216) 
0.0626358

>  <r_epik_Ionization_Penalty_Neutral>  (216) 
0.0315609

>  <r_epik_State_Penalty>  (216) 
0.0782903

>  <r_epik_Charging_Adjusted_Penalty>  (216) 
0.140926

>  <i_epik_Tot_Q>  (216) 
1

>  <i_epik_Tot_abs_Q>  (216) 
1

>  <s_lp_Force_Field>  (216) 
OPLS3e

>  <r_lp_Energy>  (216) 
98.9787

>  <b_lp_Chiralities_Consistent>  (216) 
1

>  <s_lp_Variant>  (216) 
72:0-1

>  <s_i_glide_gridfile>  (216) 
pfpi4k_grid

>  <i_i_glide_lignum>  (216) 
20

>  <i_i_glide_rotatable_bonds>  (216) 
4

>  <r_i_docking_score>  (216) 
-3.82709

>  <r_i_glide_ligand_efficiency>  (216) 
-0.159462

>  <r_i_glide_ligand_efficiency_sa>  (216) 
-0.459968

>  <r_i_glide_ligand_efficiency_ln>  (216) 
-0.915998

>  <r_i_glide_gscore>  (216) 
-3.82709

>  <r_i_glide_lipo>  (216) 
-0.843831

>  <r_i_glide_hbond>  (216) 
0

>  <r_i_glide_metal>  (216) 
-0

>  <r_i_glide_rewards>  (216) 
-1.28127

>  <r_i_glide_evdw>  (216) 
-27.209

>  <r_i_glide_ecoul>  (216) 
-4.38861

>  <r_i_glide_erotb>  (216) 
0.348325

>  <r_i_glide_esite>  (216) 
-0.0315682

>  <r_i_glide_emodel>  (216) 
-38.476

>  <r_i_glide_energy>  (216) 
-31.5976

>  <r_i_glide_einternal>  (216) 
1.25841

>  <r_i_glide_intrahb_reward>  (216) 
-0

>  <i_i_glide_confnum>  (216) 
1

>  <i_i_glide_posenum>  (216) 
9

>  <r_i_glide_eff_state_penalty>  (216) 
0

>  <ligand_id>  (216) 
72

>  <original_smiles>  (216) 
O=C1CC2(O)C3Cc4ccc(O)c5c4C2(CCN3CC2CC2)C1O5

>  <smiles>  (216) 
[H]Oc1c([H])c([H])c2c3c1OC1([H])C(=O)C([H])([H])C4(O[H])C31C([H])([H])C([H])([H])[N+]([H])(C([H])([H])C1([H])C([H])([H])C1([H])[H])C4([H])C2([H])[H]

$$$$
72:0:2
     RDKit          3D

 46 51  0  0  1  0  0  0  0  0999 V2000
    4.5037   -0.3979    2.8258 O   0  0  0  0  0  0  0  0  0  0  0  0
    4.6493   -1.5346    2.3808 C   0  0  0  0  0  0  0  0  0  0  0  0
    5.5705   -1.9566    1.1797 C   0  0  0  0  0  0  0  0  0  0  0  0
    5.2653   -3.5036    1.0044 C   0  0  2  0  0  0  0  0  0  0  0  0
    6.2050   -4.1874    1.8279 O   0  0  0  0  0  0  0  0  0  0  0  0
    5.1210   -4.4089   -0.2703 C   0  0  1  0  0  0  0  0  0  0  0  0
    4.5741   -5.8424    0.1583 C   0  0  0  0  0  0  0  0  0  0  0  0
    3.4774   -5.9090    1.2628 C   0  0  0  0  0  0  0  0  0  0  0  0
    2.6617   -6.9568    1.7325 C   0  0  0  0  0  0  0  0  0  0  0  0
    1.7520   -6.7089    2.8071 C   0  0  0  0  0  0  0  0  0  0  0  0
    1.6535   -5.4357    3.4499 C   0  0  0  0  0  0  0  0  0  0  0  0
    0.7863   -5.2554    4.4896 O   0  0  0  0  0  0  0  0  0  0  0  0
    2.4715   -4.3700    3.0096 C   0  0  0  0  0  0  0  0  0  0  0  0
    3.2818   -4.7126    1.9408 C   0  0  0  0  0  0  0  0  0  0  0  0
    3.8694   -3.4643    1.5468 C   0  0  2  0  0  0  0  0  0  0  0  0
    2.8761   -2.8003    0.5057 C   0  0  0  0  0  0  0  0  0  0  0  0
    2.8276   -3.5956   -0.8038 C   0  0  0  0  0  0  0  0  0  0  0  0
    4.2095   -3.8401   -1.3187 N   0  0  1  0  0  0  0  0  0  0  0  0
    4.7947   -2.7064   -2.0890 C   0  0  0  0  0  0  0  0  0  0  0  0
    4.1599   -2.5490   -3.4562 C   0  0  0  0  0  0  0  0  0  0  0  0
    3.9877   -1.1682   -4.0630 C   0  0  0  0  0  0  0  0  0  0  0  0
    2.7840   -1.9306   -3.6059 C   0  0  0  0  0  0  0  0  0  0  0  0
    3.9891   -2.8098    2.8895 C   0  0  2  0  0  0  0  0  0  0  0  0
    2.6601   -3.0420    3.4084 O   0  0  0  0  0  0  0  0  0  0  0  0
    5.3056   -1.3492    0.3192 H   0  0  0  0  0  0  0  0  0  0  0  0
    6.6183   -1.7642    1.4120 H   0  0  0  0  0  0  0  0  0  0  0  0
    6.1729   -3.8454    2.7092 H   0  0  0  0  0  0  0  0  0  0  0  0
    6.1045   -4.5487   -0.7225 H   0  0  0  0  0  0  0  0  0  0  0  0
    4.2164   -6.3807   -0.7198 H   0  0  0  0  0  0  0  0  0  0  0  0
    5.4071   -6.4381    0.5217 H   0  0  0  0  0  0  0  0  0  0  0  0
    2.7253   -7.9386    1.2806 H   0  0  0  0  0  0  0  0  0  0  0  0
    1.1293   -7.5239    3.1360 H   0  0  0  0  0  0  0  0  0  0  0  0
    0.4169   -6.0674    4.8023 H   0  0  0  0  0  0  0  0  0  0  0  0
    1.8684   -2.7217    0.9099 H   0  0  0  0  0  0  0  0  0  0  0  0
    3.1275   -1.7701    0.2525 H   0  0  0  0  0  0  0  0  0  0  0  0
    2.3438   -4.5619   -0.6410 H   0  0  0  0  0  0  0  0  0  0  0  0
    2.1778   -3.1075   -1.5156 H   0  0  0  0  0  0  0  0  0  0  0  0
    4.6789   -1.7692   -1.5527 H   0  0  0  0  0  0  0  0  0  0  0  0
    5.8658   -2.8602   -2.2363 H   0  0  0  0  0  0  0  0  0  0  0  0
    4.4328   -3.3356   -4.1637 H   0  0  0  0  0  0  0  0  0  0  0  0
    4.2463   -0.3018   -3.4568 H   0  0  0  0  0  0  0  0  0  0  0  0
    4.0783   -1.0262   -5.1377 H   0  0  0  0  0  0  0  0  0  0  0  0
    2.1304   -2.4146   -4.3241 H   0  0  0  0  0  0  0  0  0  0  0  0
    2.2748   -1.4853   -2.7530 H   0  0  0  0  0  0  0  0  0  0  0  0
    4.7000   -3.3095    3.5489 H   0  0  0  0  0  0  0  0  0  0  0  0
    4.0983   -4.5847   -2.0004 H   0  0  0  0  0  0  0  0  0  0  0  0
  1  2  2  0
  2 23  1  0
  2  3  1  0
  3  4  1  0
  3 25  1  0
  3 26  1  0
  4 15  1  0
  4  5  1  1
  4  6  1  0
  5 27  1  0
  6 18  1  0
  6  7  1  0
  6 28  1  6
  7  8  1  0
  7 29  1  0
  7 30  1  0
  8 14  2  0
  8  9  1  0
  9 10  2  0
  9 31  1  0
 10 11  1  0
 10 32  1  0
 11 12  1  0
 11 13  2  0
 12 33  1  0
 13 24  1  0
 13 14  1  0
 14 15  1  0
 15 16  1  6
 15 23  1  0
 16 17  1  0
 16 34  1  0
 16 35  1  0
 17 18  1  0
 17 36  1  0
 17 37  1  0
 18 19  1  0
 18 46  1  6
 19 20  1  0
 19 38  1  0
 19 39  1  0
 20 22  1  0
 20 21  1  0
 20 40  1  0
 21 22  1  0
 21 41  1  0
 21 42  1  0
 22 43  1  0
 22 44  1  0
 23 24  1  0
 23 45  1  1
M  CHG  1  18   1
M  END
>  <i_m_ct_stereo_status>  (217) 
1

>  <s_m_source_file>  (217) 
/var/tmp/pbs.5076255.sched01/tmppxy1xzy0/80exjuxwr6.sdf

>  <i_m_source_file_index>  (217) 
20

>  <i_lp_mmshare_version>  (217) 
48012

>  <i_f3d_flags>  (217) 
0

>  <s_epik_input>  (217) 
Tz1DKFtDSDJdMSlbQ0BIXTJPYyhjKFtPSF0pW2NIXVtjSF0zKWM0YzNbQ0gyXVtDQEhdKFtDQEBdMShbQ0BdMjQ1KVtPSF0pTihbQ0gyXVtDSDJdNSlbQ0gyXVtDSF02W0NIMl1bQ0gyXTY=

>  <s_epik_cmdline>  (217) 
J2VwaWtfcHl0aG9uJywgJy1waHQnLCAnMi4wJywgJy1waCcsICc3LjAnLCAnLXRuJywgJzgnLCAnLW1hJywgJzIwMCcsICctaW1hZScsICc8aW5maWxlLm1hZT4nLCAnLW9tYWUnLCAnPG91dGZpbGUubWFlPic=

>  <r_lp_tautomer_probability>  (217) 
1

>  <r_epik_Ionization_Penalty>  (217) 
0.0941967

>  <r_epik_Ionization_Penalty_Charging>  (217) 
0.0626358

>  <r_epik_Ionization_Penalty_Neutral>  (217) 
0.0315609

>  <r_epik_State_Penalty>  (217) 
0.0782903

>  <r_epik_Charging_Adjusted_Penalty>  (217) 
0.140926

>  <i_epik_Tot_Q>  (217) 
1

>  <i_epik_Tot_abs_Q>  (217) 
1

>  <s_lp_Force_Field>  (217) 
OPLS3e

>  <r_lp_Energy>  (217) 
98.9787

>  <b_lp_Chiralities_Consistent>  (217) 
1

>  <s_lp_Variant>  (217) 
72:0-1

>  <s_i_glide_gridfile>  (217) 
pfpi4k_grid

>  <i_i_glide_lignum>  (217) 
20

>  <i_i_glide_rotatable_bonds>  (217) 
4

>  <r_i_docking_score>  (217) 
-3.6682

>  <r_i_glide_ligand_efficiency>  (217) 
-0.152842

>  <r_i_glide_ligand_efficiency_sa>  (217) 
-0.440872

>  <r_i_glide_ligand_efficiency_ln>  (217) 
-0.877969

>  <r_i_glide_gscore>  (217) 
-3.6682

>  <r_i_glide_lipo>  (217) 
-0.819951

>  <r_i_glide_hbond>  (217) 
0

>  <r_i_glide_metal>  (217) 
-0

>  <r_i_glide_rewards>  (217) 
-1.24119

>  <r_i_glide_evdw>  (217) 
-27.145

>  <r_i_glide_ecoul>  (217) 
-3.79019

>  <r_i_glide_erotb>  (217) 
0.348325

>  <r_i_glide_esite>  (217) 
-0.0296072

>  <r_i_glide_emodel>  (217) 
-37.6001

>  <r_i_glide_energy>  (217) 
-30.9352

>  <r_i_glide_einternal>  (217) 
1.13151

>  <r_i_glide_intrahb_reward>  (217) 
-0

>  <i_i_glide_confnum>  (217) 
5

>  <i_i_glide_posenum>  (217) 
35

>  <r_i_glide_eff_state_penalty>  (217) 
0

>  <ligand_id>  (217) 
72

>  <original_smiles>  (217) 
O=C1CC2(O)C3Cc4ccc(O)c5c4C2(CCN3CC2CC2)C1O5

>  <smiles>  (217) 
[H]Oc1c([H])c([H])c2c3c1OC1([H])C(=O)C([H])([H])C4(O[H])C31C([H])([H])C([H])([H])[N+]([H])(C([H])([H])C1([H])C([H])([H])C1([H])[H])C4([H])C2([H])[H]

$$$$
72:1:0
     RDKit          3D

 45 50  0  0  1  0  0  0  0  0999 V2000
    3.9970   -2.5327   -3.9200 O   0  0  0  0  0  0  0  0  0  0  0  0
    4.6409   -2.6283   -2.8725 C   0  0  0  0  0  0  0  0  0  0  0  0
    5.7694   -3.6699   -2.5816 C   0  0  0  0  0  0  0  0  0  0  0  0
    6.2047   -3.3365   -1.0928 C   0  0  2  0  0  0  0  0  0  0  0  0
    7.2192   -2.3417   -1.2036 O   0  0  0  0  0  0  0  0  0  0  0  0
    6.5496   -4.2918    0.0727 C   0  0  1  0  0  0  0  0  0  0  0  0
    6.5672   -3.5092    1.4484 C   0  0  0  0  0  0  0  0  0  0  0  0
    5.5874   -2.3269    1.6798 C   0  0  0  0  0  0  0  0  0  0  0  0
    5.2840   -1.4909    2.7768 C   0  0  0  0  0  0  0  0  0  0  0  0
    4.2572   -0.4935    2.6424 C   0  0  0  0  0  0  0  0  0  0  0  0
    3.5312   -0.3014    1.4154 C   0  0  0  0  0  0  0  0  0  0  0  0
    2.5155    0.5995    1.3688 O   0  0  0  0  0  0  0  0  0  0  0  0
    3.8538   -1.0783    0.2730 C   0  0  0  0  0  0  0  0  0  0  0  0
    4.8267   -2.0275    0.5591 C   0  0  0  0  0  0  0  0  0  0  0  0
    4.8753   -2.7964   -0.6454 C   0  0  2  0  0  0  0  0  0  0  0  0
    3.7976   -3.9572   -0.4731 C   0  0  0  0  0  0  0  0  0  0  0  0
    4.3117   -5.0834    0.4247 C   0  0  0  0  0  0  0  0  0  0  0  0
    5.6756   -5.4613    0.1047 N   0  0  0  0  0  0  0  0  0  0  0  0
    6.1911   -6.5388    0.9503 C   0  0  0  0  0  0  0  0  0  0  0  0
    5.3836   -7.8141    0.9105 C   0  0  0  0  0  0  0  0  0  0  0  0
    4.8973   -8.4677    2.1828 C   0  0  0  0  0  0  0  0  0  0  0  0
    5.9835   -9.1229    1.3696 C   0  0  0  0  0  0  0  0  0  0  0  0
    4.5613   -1.7274   -1.6549 C   0  0  2  0  0  0  0  0  0  0  0  0
    3.4143   -1.1220   -1.0548 O   0  0  0  0  0  0  0  0  0  0  0  0
    5.3608   -4.6779   -2.6714 H   0  0  0  0  0  0  0  0  0  0  0  0
    6.6036   -3.5540   -3.2783 H   0  0  0  0  0  0  0  0  0  0  0  0
    8.0217   -2.7780   -1.4301 H   0  0  0  0  0  0  0  0  0  0  0  0
    7.5714   -4.6471   -0.0985 H   0  0  0  0  0  0  0  0  0  0  0  0
    6.4714   -4.1681    2.3079 H   0  0  0  0  0  0  0  0  0  0  0  0
    7.5515   -3.0695    1.5319 H   0  0  0  0  0  0  0  0  0  0  0  0
    5.7945   -1.6175    3.7048 H   0  0  0  0  0  0  0  0  0  0  0  0
    4.0097    0.1144    3.4885 H   0  0  0  0  0  0  0  0  0  0  0  0
    1.9592    0.4776    0.6252 H   0  0  0  0  0  0  0  0  0  0  0  0
    2.8312   -3.5958   -0.1218 H   0  0  0  0  0  0  0  0  0  0  0  0
    3.5636   -4.4192   -1.4214 H   0  0  0  0  0  0  0  0  0  0  0  0
    4.2359   -4.7873    1.4722 H   0  0  0  0  0  0  0  0  0  0  0  0
    3.6345   -5.9365    0.3052 H   0  0  0  0  0  0  0  0  0  0  0  0
    7.2091   -6.7809    0.6463 H   0  0  0  0  0  0  0  0  0  0  0  0
    6.2600   -6.2173    1.9900 H   0  0  0  0  0  0  0  0  0  0  0  0
    4.7286   -7.9118    0.0417 H   0  0  0  0  0  0  0  0  0  0  0  0
    5.1870   -7.9906    3.1258 H   0  0  0  0  0  0  0  0  0  0  0  0
    3.9101   -8.9054    2.1687 H   0  0  0  0  0  0  0  0  0  0  0  0
    5.7022  -10.0173    0.8051 H   0  0  0  0  0  0  0  0  0  0  0  0
    7.0014   -9.0977    1.7313 H   0  0  0  0  0  0  0  0  0  0  0  0
    5.3355   -0.9780   -1.7411 H   0  0  0  0  0  0  0  0  0  0  0  0
  1  2  2  0
  2 23  1  0
  2  3  1  0
  3  4  1  0
  3 25  1  0
  3 26  1  0
  4 15  1  0
  4  5  1  6
  4  6  1  0
  5 27  1  0
  6 18  1  0
  6  7  1  0
  6 28  1  6
  7  8  1  0
  7 29  1  0
  7 30  1  0
  8 14  2  0
  8  9  1  0
  9 10  2  0
  9 31  1  0
 10 11  1  0
 10 32  1  0
 11 12  1  0
 11 13  2  0
 12 33  1  0
 13 24  1  0
 13 14  1  0
 14 15  1  0
 15 16  1  1
 15 23  1  0
 16 17  1  0
 16 34  1  0
 16 35  1  0
 17 18  1  0
 17 36  1  0
 17 37  1  0
 18 19  1  0
 19 20  1  0
 19 38  1  0
 19 39  1  0
 20 22  1  0
 20 21  1  0
 20 40  1  0
 21 22  1  0
 21 41  1  0
 21 42  1  0
 22 43  1  0
 22 44  1  0
 23 24  1  0
 23 45  1  6
M  END
>  <i_m_ct_stereo_status>  (218) 
1

>  <s_m_source_file>  (218) 
/var/tmp/pbs.5076255.sched01/tmppxy1xzy0/80exjuxwr6.sdf

>  <i_m_source_file_index>  (218) 
21

>  <i_lp_mmshare_version>  (218) 
48012

>  <i_f3d_flags>  (218) 
0

>  <s_epik_input>  (218) 
Tz1DKFtDSDJdMSlbQ0BIXTJPYyhjKFtPSF0pW2NIXVtjSF0zKWM0YzNbQ0gyXVtDQEhdKFtDQEBdMShbQ0BdMjQ1KVtPSF0pTihbQ0gyXVtDSDJdNSlbQ0gyXVtDSF02W0NIMl1bQ0gyXTY=

>  <s_epik_cmdline>  (218) 
J2VwaWtfcHl0aG9uJywgJy1waHQnLCAnMi4wJywgJy1waCcsICc3LjAnLCAnLXRuJywgJzgnLCAnLW1hJywgJzIwMCcsICctaW1hZScsICc8aW5maWxlLm1hZT4nLCAnLW9tYWUnLCAnPG91dGZpbGUubWFlPic=

>  <r_lp_tautomer_probability>  (218) 
1

>  <r_epik_Ionization_Penalty>  (218) 
1.36413

>  <r_epik_Ionization_Penalty_Charging>  (218) 
0

>  <r_epik_Ionization_Penalty_Neutral>  (218) 
1.36413

>  <r_epik_State_Penalty>  (218) 
1.46519

>  <r_epik_Charging_Adjusted_Penalty>  (218) 
1.46519

>  <i_epik_Tot_Q>  (218) 
0

>  <i_epik_Tot_abs_Q>  (218) 
0

>  <s_lp_Force_Field>  (218) 
OPLS3e

>  <r_lp_Energy>  (218) 
97.8446

>  <b_lp_Chiralities_Consistent>  (218) 
1

>  <s_lp_Variant>  (218) 
72:0-2

>  <s_i_glide_gridfile>  (218) 
pfpi4k_grid

>  <i_i_glide_lignum>  (218) 
21

>  <i_i_glide_rotatable_bonds>  (218) 
4

>  <r_i_docking_score>  (218) 
-4.08614

>  <r_i_glide_ligand_efficiency>  (218) 
-0.170256

>  <r_i_glide_ligand_efficiency_sa>  (218) 
-0.491102

>  <r_i_glide_ligand_efficiency_ln>  (218) 
-0.978

>  <r_i_glide_gscore>  (218) 
-4.08614

>  <r_i_glide_lipo>  (218) 
-0.933425

>  <r_i_glide_hbond>  (218) 
-0.323686

>  <r_i_glide_metal>  (218) 
-0

>  <r_i_glide_rewards>  (218) 
-1.33943

>  <r_i_glide_evdw>  (218) 
-23.7586

>  <r_i_glide_ecoul>  (218) 
-4.34593

>  <r_i_glide_erotb>  (218) 
0.350222

>  <r_i_glide_esite>  (218) 
0

>  <r_i_glide_emodel>  (218) 
-34.5855

>  <r_i_glide_energy>  (218) 
-28.1045

>  <r_i_glide_einternal>  (218) 
1.42349

>  <r_i_glide_intrahb_reward>  (218) 
-0

>  <i_i_glide_confnum>  (218) 
5

>  <i_i_glide_posenum>  (218) 
19

>  <r_i_glide_eff_state_penalty>  (218) 
0

>  <ligand_id>  (218) 
72

>  <original_smiles>  (218) 
O=C1CC2(O)C3Cc4ccc(O)c5c4C2(CCN3CC2CC2)C1O5

>  <smiles>  (218) 
[H]Oc1c([H])c([H])c2c3c1OC1([H])C(=O)C([H])([H])C4(O[H])C([H])(N(C([H])([H])C5([H])C([H])([H])C5([H])[H])C([H])([H])C([H])([H])C314)C2([H])[H]

$$$$
72:1:1
     RDKit          3D

 45 50  0  0  1  0  0  0  0  0999 V2000
    4.1777   -2.2398   -3.8784 O   0  0  0  0  0  0  0  0  0  0  0  0
    4.7551   -2.4751   -2.8140 C   0  0  0  0  0  0  0  0  0  0  0  0
    5.7384   -3.6564   -2.5406 C   0  0  0  0  0  0  0  0  0  0  0  0
    6.1643   -3.4362   -1.0289 C   0  0  2  0  0  0  0  0  0  0  0  0
    7.2898   -2.5599   -1.0775 O   0  0  0  0  0  0  0  0  0  0  0  0
    6.3576   -4.4694    0.1078 C   0  0  1  0  0  0  0  0  0  0  0  0
    6.4366   -3.7486    1.5159 C   0  0  0  0  0  0  0  0  0  0  0  0
    5.5855   -2.4777    1.7725 C   0  0  0  0  0  0  0  0  0  0  0  0
    5.3388   -1.6645    2.8993 C   0  0  0  0  0  0  0  0  0  0  0  0
    4.4640   -0.5384    2.7877 C   0  0  0  0  0  0  0  0  0  0  0  0
    3.8213   -0.1874    1.5517 C   0  0  0  0  0  0  0  0  0  0  0  0
    3.0143    0.9048    1.5242 O   0  0  0  0  0  0  0  0  0  0  0  0
    4.0569   -0.9701    0.3826 C   0  0  0  0  0  0  0  0  0  0  0  0
    4.8960   -2.0469    0.6469 C   0  0  0  0  0  0  0  0  0  0  0  0
    4.8929   -2.7659   -0.5938 C   0  0  2  0  0  0  0  0  0  0  0  0
    3.6743   -3.7977   -0.5226 C   0  0  0  0  0  0  0  0  0  0  0  0
    4.0218   -5.0120    0.3424 C   0  0  0  0  0  0  0  0  0  0  0  0
    5.3513   -5.5274    0.0635 N   0  0  0  0  0  0  0  0  0  0  0  0
    5.6892   -6.6923    0.8720 C   0  0  0  0  0  0  0  0  0  0  0  0
    4.8313   -7.8972    0.5769 C   0  0  0  0  0  0  0  0  0  0  0  0
    3.7499   -8.3368    1.5310 C   0  0  0  0  0  0  0  0  0  0  0  0
    5.0066   -9.1571    1.3903 C   0  0  0  0  0  0  0  0  0  0  0  0
    4.7438   -1.6216   -1.5576 C   0  0  2  0  0  0  0  0  0  0  0  0
    3.6573   -0.9243   -0.9547 O   0  0  0  0  0  0  0  0  0  0  0  0
    5.2207   -4.6070   -2.6866 H   0  0  0  0  0  0  0  0  0  0  0  0
    6.6031   -3.6116   -3.2058 H   0  0  0  0  0  0  0  0  0  0  0  0
    8.0410   -3.0577   -1.3436 H   0  0  0  0  0  0  0  0  0  0  0  0
    7.3318   -4.9407   -0.0462 H   0  0  0  0  0  0  0  0  0  0  0  0
    6.2357   -4.4298    2.3398 H   0  0  0  0  0  0  0  0  0  0  0  0
    7.4659   -3.4244    1.6528 H   0  0  0  0  0  0  0  0  0  0  0  0
    5.7841   -1.9054    3.8372 H   0  0  0  0  0  0  0  0  0  0  0  0
    4.2824    0.0535    3.6650 H   0  0  0  0  0  0  0  0  0  0  0  0
    3.0725    1.4556    2.2697 H   0  0  0  0  0  0  0  0  0  0  0  0
    2.7559   -3.3263   -0.1698 H   0  0  0  0  0  0  0  0  0  0  0  0
    3.3898   -4.2038   -1.4928 H   0  0  0  0  0  0  0  0  0  0  0  0
    3.9310   -4.7424    1.3975 H   0  0  0  0  0  0  0  0  0  0  0  0
    3.2702   -5.7901    0.1672 H   0  0  0  0  0  0  0  0  0  0  0  0
    6.7274   -6.9734    0.7016 H   0  0  0  0  0  0  0  0  0  0  0  0
    5.6107   -6.4616    1.9378 H   0  0  0  0  0  0  0  0  0  0  0  0
    4.6061   -8.0456   -0.4818 H   0  0  0  0  0  0  0  0  0  0  0  0
    3.6325   -7.7362    2.4390 H   0  0  0  0  0  0  0  0  0  0  0  0
    2.8341   -8.7231    1.1084 H   0  0  0  0  0  0  0  0  0  0  0  0
    4.9209  -10.1120    0.8699 H   0  0  0  0  0  0  0  0  0  0  0  0
    5.7301   -9.1344    2.1929 H   0  0  0  0  0  0  0  0  0  0  0  0
    5.6065   -0.9617   -1.5851 H   0  0  0  0  0  0  0  0  0  0  0  0
  1  2  2  0
  2 23  1  0
  2  3  1  0
  3  4  1  0
  3 25  1  0
  3 26  1  0
  4 15  1  0
  4  5  1  6
  4  6  1  0
  5 27  1  0
  6 18  1  0
  6  7  1  0
  6 28  1  6
  7  8  1  0
  7 29  1  0
  7 30  1  0
  8 14  2  0
  8  9  1  0
  9 10  2  0
  9 31  1  0
 10 11  1  0
 10 32  1  0
 11 12  1  0
 11 13  2  0
 12 33  1  0
 13 24  1  0
 13 14  1  0
 14 15  1  0
 15 16  1  1
 15 23  1  0
 16 17  1  0
 16 34  1  0
 16 35  1  0
 17 18  1  0
 17 36  1  0
 17 37  1  0
 18 19  1  0
 19 20  1  0
 19 38  1  0
 19 39  1  0
 20 22  1  0
 20 21  1  0
 20 40  1  0
 21 22  1  0
 21 41  1  0
 21 42  1  0
 22 43  1  0
 22 44  1  0
 23 24  1  0
 23 45  1  6
M  END
>  <i_m_ct_stereo_status>  (219) 
1

>  <s_m_source_file>  (219) 
/var/tmp/pbs.5076255.sched01/tmppxy1xzy0/80exjuxwr6.sdf

>  <i_m_source_file_index>  (219) 
21

>  <i_lp_mmshare_version>  (219) 
48012

>  <i_f3d_flags>  (219) 
0

>  <s_epik_input>  (219) 
Tz1DKFtDSDJdMSlbQ0BIXTJPYyhjKFtPSF0pW2NIXVtjSF0zKWM0YzNbQ0gyXVtDQEhdKFtDQEBdMShbQ0BdMjQ1KVtPSF0pTihbQ0gyXVtDSDJdNSlbQ0gyXVtDSF02W0NIMl1bQ0gyXTY=

>  <s_epik_cmdline>  (219) 
J2VwaWtfcHl0aG9uJywgJy1waHQnLCAnMi4wJywgJy1waCcsICc3LjAnLCAnLXRuJywgJzgnLCAnLW1hJywgJzIwMCcsICctaW1hZScsICc8aW5maWxlLm1hZT4nLCAnLW9tYWUnLCAnPG91dGZpbGUubWFlPic=

>  <r_lp_tautomer_probability>  (219) 
1

>  <r_epik_Ionization_Penalty>  (219) 
1.36413

>  <r_epik_Ionization_Penalty_Charging>  (219) 
0

>  <r_epik_Ionization_Penalty_Neutral>  (219) 
1.36413

>  <r_epik_State_Penalty>  (219) 
1.46519

>  <r_epik_Charging_Adjusted_Penalty>  (219) 
1.46519

>  <i_epik_Tot_Q>  (219) 
0

>  <i_epik_Tot_abs_Q>  (219) 
0

>  <s_lp_Force_Field>  (219) 
OPLS3e

>  <r_lp_Energy>  (219) 
97.8446

>  <b_lp_Chiralities_Consistent>  (219) 
1

>  <s_lp_Variant>  (219) 
72:0-2

>  <s_i_glide_gridfile>  (219) 
pfpi4k_grid

>  <i_i_glide_lignum>  (219) 
21

>  <i_i_glide_rotatable_bonds>  (219) 
4

>  <r_i_docking_score>  (219) 
-3.86967

>  <r_i_glide_ligand_efficiency>  (219) 
-0.161236

>  <r_i_glide_ligand_efficiency_sa>  (219) 
-0.465086

>  <r_i_glide_ligand_efficiency_ln>  (219) 
-0.926191

>  <r_i_glide_gscore>  (219) 
-3.86967

>  <r_i_glide_lipo>  (219) 
-0.831516

>  <r_i_glide_hbond>  (219) 
-0.269755

>  <r_i_glide_metal>  (219) 
-0

>  <r_i_glide_rewards>  (219) 
-1.35403

>  <r_i_glide_evdw>  (219) 
-23.9047

>  <r_i_glide_ecoul>  (219) 
-3.7957

>  <r_i_glide_erotb>  (219) 
0.350222

>  <r_i_glide_esite>  (219) 
0

>  <r_i_glide_emodel>  (219) 
-34.6107

>  <r_i_glide_energy>  (219) 
-27.7004

>  <r_i_glide_einternal>  (219) 
0.186559

>  <r_i_glide_intrahb_reward>  (219) 
-0

>  <i_i_glide_confnum>  (219) 
5

>  <i_i_glide_posenum>  (219) 
8

>  <r_i_glide_eff_state_penalty>  (219) 
0

>  <ligand_id>  (219) 
72

>  <original_smiles>  (219) 
O=C1CC2(O)C3Cc4ccc(O)c5c4C2(CCN3CC2CC2)C1O5

>  <smiles>  (219) 
[H]Oc1c([H])c([H])c2c3c1OC1([H])C(=O)C([H])([H])C4(O[H])C([H])(N(C([H])([H])C5([H])C([H])([H])C5([H])[H])C([H])([H])C([H])([H])C314)C2([H])[H]

$$$$
72:1:2
     RDKit          3D

 45 50  0  0  1  0  0  0  0  0999 V2000
    2.0223   -6.3935    1.9004 O   0  0  0  0  0  0  0  0  0  0  0  0
    2.8993   -5.5284    1.8440 C   0  0  0  0  0  0  0  0  0  0  0  0
    2.6450   -3.9921    1.6666 C   0  0  0  0  0  0  0  0  0  0  0  0
    4.1133   -3.3908    1.5773 C   0  0  2  0  0  0  0  0  0  0  0  0
    4.5011   -3.1250    2.9169 O   0  0  0  0  0  0  0  0  0  0  0  0
    4.6768   -2.2766    0.6737 C   0  0  1  0  0  0  0  0  0  0  0  0
    6.2581   -2.2731    0.7081 C   0  0  0  0  0  0  0  0  0  0  0  0
    7.0277   -3.6126    0.8445 C   0  0  0  0  0  0  0  0  0  0  0  0
    8.3874   -3.9795    0.8296 C   0  0  0  0  0  0  0  0  0  0  0  0
    8.7501   -5.3611    0.9956 C   0  0  0  0  0  0  0  0  0  0  0  0
    7.7735   -6.3970    1.2002 C   0  0  0  0  0  0  0  0  0  0  0  0
    8.1791   -7.6897    1.3445 O   0  0  0  0  0  0  0  0  0  0  0  0
    6.3919   -6.0779    1.2490 C   0  0  0  0  0  0  0  0  0  0  0  0
    6.1915   -4.7124    1.0339 C   0  0  0  0  0  0  0  0  0  0  0  0
    4.7621   -4.6117    0.9928 C   0  0  2  0  0  0  0  0  0  0  0  0
    4.3364   -4.8215   -0.5276 C   0  0  0  0  0  0  0  0  0  0  0  0
    4.5764   -3.5599   -1.3622 C   0  0  0  0  0  0  0  0  0  0  0  0
    4.1292   -2.3508   -0.6789 N   0  0  0  0  0  0  0  0  0  0  0  0
    4.3511   -1.1499   -1.4651 C   0  0  0  0  0  0  0  0  0  0  0  0
    3.4596   -1.0428   -2.6697 C   0  0  0  0  0  0  0  0  0  0  0  0
    3.9624   -1.3645   -4.0583 C   0  0  0  0  0  0  0  0  0  0  0  0
    3.6513    0.0614   -3.6871 C   0  0  0  0  0  0  0  0  0  0  0  0
    4.4017   -5.7148    1.9558 C   0  0  2  0  0  0  0  0  0  0  0  0
    5.2154   -6.7965    1.4559 O   0  0  0  0  0  0  0  0  0  0  0  0
    2.0913   -3.8135    0.7447 H   0  0  0  0  0  0  0  0  0  0  0  0
    2.0870   -3.5831    2.5046 H   0  0  0  0  0  0  0  0  0  0  0  0
    4.0877   -2.3298    3.1840 H   0  0  0  0  0  0  0  0  0  0  0  0
    4.3386   -1.3268    1.0977 H   0  0  0  0  0  0  0  0  0  0  0  0
    6.6870   -1.7537   -0.1474 H   0  0  0  0  0  0  0  0  0  0  0  0
    6.5873   -1.6862    1.5748 H   0  0  0  0  0  0  0  0  0  0  0  0
    9.1338   -3.2232    0.6930 H   0  0  0  0  0  0  0  0  0  0  0  0
    9.7834   -5.6354    0.9820 H   0  0  0  0  0  0  0  0  0  0  0  0
    9.1308   -7.8051    1.3086 H   0  0  0  0  0  0  0  0  0  0  0  0
    4.8313   -5.6832   -0.9822 H   0  0  0  0  0  0  0  0  0  0  0  0
    3.2716   -5.0463   -0.6500 H   0  0  0  0  0  0  0  0  0  0  0  0
    5.6398   -3.4955   -1.6060 H   0  0  0  0  0  0  0  0  0  0  0  0
    4.0613   -3.6739   -2.3205 H   0  0  0  0  0  0  0  0  0  0  0  0
    4.1751   -0.2641   -0.8552 H   0  0  0  0  0  0  0  0  0  0  0  0
    5.3893   -1.0927   -1.7988 H   0  0  0  0  0  0  0  0  0  0  0  0
    2.4148   -1.3014   -2.4658 H   0  0  0  0  0  0  0  0  0  0  0  0
    5.0037   -1.6692   -4.1211 H   0  0  0  0  0  0  0  0  0  0  0  0
    3.2744   -1.8823   -4.7186 H   0  0  0  0  0  0  0  0  0  0  0  0
    2.7618    0.5077   -4.1233 H   0  0  0  0  0  0  0  0  0  0  0  0
    4.4707    0.7502   -3.4957 H   0  0  0  0  0  0  0  0  0  0  0  0
    4.6951   -5.5130    2.9783 H   0  0  0  0  0  0  0  0  0  0  0  0
  1  2  2  0
  2 23  1  0
  2  3  1  0
  3  4  1  0
  3 25  1  0
  3 26  1  0
  4 15  1  0
  4  5  1  1
  4  6  1  0
  5 27  1  0
  6 18  1  0
  6  7  1  0
  6 28  1  1
  7  8  1  0
  7 29  1  0
  7 30  1  0
  8 14  2  0
  8  9  1  0
  9 10  2  0
  9 31  1  0
 10 11  1  0
 10 32  1  0
 11 12  1  0
 11 13  2  0
 12 33  1  0
 13 24  1  0
 13 14  1  0
 14 15  1  0
 15 16  1  6
 15 23  1  0
 16 17  1  0
 16 34  1  0
 16 35  1  0
 17 18  1  0
 17 36  1  0
 17 37  1  0
 18 19  1  0
 19 20  1  0
 19 38  1  0
 19 39  1  0
 20 22  1  0
 20 21  1  0
 20 40  1  0
 21 22  1  0
 21 41  1  0
 21 42  1  0
 22 43  1  0
 22 44  1  0
 23 24  1  0
 23 45  1  1
M  END
>  <i_m_ct_stereo_status>  (220) 
1

>  <s_m_source_file>  (220) 
/var/tmp/pbs.5076255.sched01/tmppxy1xzy0/80exjuxwr6.sdf

>  <i_m_source_file_index>  (220) 
21

>  <i_lp_mmshare_version>  (220) 
48012

>  <i_f3d_flags>  (220) 
0

>  <s_epik_input>  (220) 
Tz1DKFtDSDJdMSlbQ0BIXTJPYyhjKFtPSF0pW2NIXVtjSF0zKWM0YzNbQ0gyXVtDQEhdKFtDQEBdMShbQ0BdMjQ1KVtPSF0pTihbQ0gyXVtDSDJdNSlbQ0gyXVtDSF02W0NIMl1bQ0gyXTY=

>  <s_epik_cmdline>  (220) 
J2VwaWtfcHl0aG9uJywgJy1waHQnLCAnMi4wJywgJy1waCcsICc3LjAnLCAnLXRuJywgJzgnLCAnLW1hJywgJzIwMCcsICctaW1hZScsICc8aW5maWxlLm1hZT4nLCAnLW9tYWUnLCAnPG91dGZpbGUubWFlPic=

>  <r_lp_tautomer_probability>  (220) 
1

>  <r_epik_Ionization_Penalty>  (220) 
1.36413

>  <r_epik_Ionization_Penalty_Charging>  (220) 
0

>  <r_epik_Ionization_Penalty_Neutral>  (220) 
1.36413

>  <r_epik_State_Penalty>  (220) 
1.46519

>  <r_epik_Charging_Adjusted_Penalty>  (220) 
1.46519

>  <i_epik_Tot_Q>  (220) 
0

>  <i_epik_Tot_abs_Q>  (220) 
0

>  <s_lp_Force_Field>  (220) 
OPLS3e

>  <r_lp_Energy>  (220) 
97.8446

>  <b_lp_Chiralities_Consistent>  (220) 
1

>  <s_lp_Variant>  (220) 
72:0-2

>  <s_i_glide_gridfile>  (220) 
pfpi4k_grid

>  <i_i_glide_lignum>  (220) 
21

>  <i_i_glide_rotatable_bonds>  (220) 
4

>  <r_i_docking_score>  (220) 
-3.39607

>  <r_i_glide_ligand_efficiency>  (220) 
-0.141503

>  <r_i_glide_ligand_efficiency_sa>  (220) 
-0.408165

>  <r_i_glide_ligand_efficiency_ln>  (220) 
-0.812836

>  <r_i_glide_gscore>  (220) 
-3.39607

>  <r_i_glide_lipo>  (220) 
-0.598566

>  <r_i_glide_hbond>  (220) 
0

>  <r_i_glide_metal>  (220) 
-0

>  <r_i_glide_rewards>  (220) 
-1.17699

>  <r_i_glide_evdw>  (220) 
-23.5177

>  <r_i_glide_ecoul>  (220) 
-5.2688

>  <r_i_glide_erotb>  (220) 
0.350222

>  <r_i_glide_esite>  (220) 
-0.00452632

>  <r_i_glide_emodel>  (220) 
-34.7974

>  <r_i_glide_energy>  (220) 
-28.7865

>  <r_i_glide_einternal>  (220) 
0.244079

>  <r_i_glide_intrahb_reward>  (220) 
-0

>  <i_i_glide_confnum>  (220) 
1

>  <i_i_glide_posenum>  (220) 
35

>  <r_i_glide_eff_state_penalty>  (220) 
0

>  <ligand_id>  (220) 
72

>  <original_smiles>  (220) 
O=C1CC2(O)C3Cc4ccc(O)c5c4C2(CCN3CC2CC2)C1O5

>  <smiles>  (220) 
[H]Oc1c([H])c([H])c2c3c1OC1([H])C(=O)C([H])([H])C4(O[H])C([H])(N(C([H])([H])C5([H])C([H])([H])C5([H])[H])C([H])([H])C([H])([H])C314)C2([H])[H]

$$$$
72:2:0
     RDKit          3D

 45 50  0  0  1  0  0  0  0  0999 V2000
    4.5758   -0.3593    2.7445 O   0  0  0  0  0  0  0  0  0  0  0  0
    4.6841   -1.5086    2.3271 C   0  0  0  0  0  0  0  0  0  0  0  0
    5.6190   -1.9896    1.1615 C   0  0  0  0  0  0  0  0  0  0  0  0
    5.2382   -3.5197    0.9904 C   0  0  2  0  0  0  0  0  0  0  0  0
    6.1077   -4.2219    1.8748 O   0  0  0  0  0  0  0  0  0  0  0  0
    5.0955   -4.4343   -0.2825 C   0  0  1  0  0  0  0  0  0  0  0  0
    4.4653   -5.8343    0.1574 C   0  0  0  0  0  0  0  0  0  0  0  0
    3.3322   -5.8324    1.2183 C   0  0  0  0  0  0  0  0  0  0  0  0
    2.4419   -6.8326    1.6675 C   0  0  0  0  0  0  0  0  0  0  0  0
    1.5118   -6.5188    2.6960 C   0  0  0  0  0  0  0  0  0  0  0  0
    1.4519   -5.2331    3.3249 C   0  0  0  0  0  0  0  0  0  0  0  0
    0.5669   -5.0065    4.3305 O   0  0  0  0  0  0  0  0  0  0  0  0
    2.3437   -4.2180    2.9017 C   0  0  0  0  0  0  0  0  0  0  0  0
    3.1692   -4.6183    1.8748 C   0  0  0  0  0  0  0  0  0  0  0  0
    3.8333   -3.4050    1.4875 C   0  0  2  0  0  0  0  0  0  0  0  0
    2.9143   -2.7066    0.4081 C   0  0  0  0  0  0  0  0  0  0  0  0
    2.8656   -3.5263   -0.8884 C   0  0  0  0  0  0  0  0  0  0  0  0
    4.2432   -3.8439   -1.3630 N   0  0  1  0  0  0  0  0  0  0  0  0
    4.9079   -2.7505   -2.1277 C   0  0  0  0  0  0  0  0  0  0  0  0
    4.2607   -2.5045   -3.4782 C   0  0  0  0  0  0  0  0  0  0  0  0
    4.2163   -1.1008   -4.0628 C   0  0  0  0  0  0  0  0  0  0  0  0
    2.9602   -1.7337   -3.5848 C   0  0  0  0  0  0  0  0  0  0  0  0
    3.9420   -2.7419    2.8273 C   0  0  2  0  0  0  0  0  0  0  0  0
    2.5830   -2.8923    3.2936 O   0  0  0  0  0  0  0  0  0  0  0  0
    5.4125   -1.3686    0.2937 H   0  0  0  0  0  0  0  0  0  0  0  0
    6.6659   -1.8507    1.4334 H   0  0  0  0  0  0  0  0  0  0  0  0
    5.7694   -5.0995    1.9897 H   0  0  0  0  0  0  0  0  0  0  0  0
    6.0852   -4.6274   -0.7059 H   0  0  0  0  0  0  0  0  0  0  0  0
    4.1164   -6.3731   -0.7205 H   0  0  0  0  0  0  0  0  0  0  0  0
    5.2595   -6.4643    0.5559 H   0  0  0  0  0  0  0  0  0  0  0  0
    2.4728   -7.8184    1.2291 H   0  0  0  0  0  0  0  0  0  0  0  0
    0.8312   -7.2871    3.0213 H   0  0  0  0  0  0  0  0  0  0  0  0
    1.8960   -2.5767    0.7774 H   0  0  0  0  0  0  0  0  0  0  0  0
    3.2216   -1.6924    0.1483 H   0  0  0  0  0  0  0  0  0  0  0  0
    2.3279   -4.4608   -0.7191 H   0  0  0  0  0  0  0  0  0  0  0  0
    2.2424   -3.0326   -1.6301 H   0  0  0  0  0  0  0  0  0  0  0  0
    4.8916   -1.8154   -1.5789 H   0  0  0  0  0  0  0  0  0  0  0  0
    5.9600   -2.9988   -2.3026 H   0  0  0  0  0  0  0  0  0  0  0  0
    4.4195   -3.3104   -4.1956 H   0  0  0  0  0  0  0  0  0  0  0  0
    4.6096   -0.2862   -3.4564 H   0  0  0  0  0  0  0  0  0  0  0  0
    4.3106   -0.9670   -5.1340 H   0  0  0  0  0  0  0  0  0  0  0  0
    2.2450   -2.1086   -4.3158 H   0  0  0  0  0  0  0  0  0  0  0  0
    2.5362   -1.2432   -2.7075 H   0  0  0  0  0  0  0  0  0  0  0  0
    4.6024   -3.2646    3.5197 H   0  0  0  0  0  0  0  0  0  0  0  0
    4.1119   -4.5903   -2.0318 H   0  0  0  0  0  0  0  0  0  0  0  0
  1  2  2  0
  2 23  1  0
  2  3  1  0
  3  4  1  0
  3 25  1  0
  3 26  1  0
  4 15  1  0
  4  5  1  1
  4  6  1  0
  5 27  1  0
  6 18  1  0
  6  7  1  0
  6 28  1  6
  7  8  1  0
  7 29  1  0
  7 30  1  0
  8 14  2  0
  8  9  1  0
  9 10  2  0
  9 31  1  0
 10 11  1  0
 10 32  1  0
 11 12  1  0
 11 13  2  0
 13 24  1  0
 13 14  1  0
 14 15  1  0
 15 16  1  6
 15 23  1  0
 16 17  1  0
 16 33  1  0
 16 34  1  0
 17 18  1  0
 17 35  1  0
 17 36  1  0
 18 19  1  0
 18 45  1  6
 19 20  1  0
 19 37  1  0
 19 38  1  0
 20 22  1  0
 20 21  1  0
 20 39  1  0
 21 22  1  0
 21 40  1  0
 21 41  1  0
 22 42  1  0
 22 43  1  0
 23 24  1  0
 23 44  1  1
M  CHG  2  12  -1  18   1
M  END
>  <i_m_ct_stereo_status>  (221) 
1

>  <s_m_source_file>  (221) 
/var/tmp/pbs.5076255.sched01/tmppxy1xzy0/80exjuxwr6.sdf

>  <i_m_source_file_index>  (221) 
22

>  <i_lp_mmshare_version>  (221) 
48012

>  <i_f3d_flags>  (221) 
0

>  <s_epik_input>  (221) 
Tz1DKFtDSDJdMSlbQ0BIXTJPYyhjKFtPSF0pW2NIXVtjSF0zKWM0YzNbQ0gyXVtDQEhdKFtDQEBdMShbQ0BdMjQ1KVtPSF0pTihbQ0gyXVtDSDJdNSlbQ0gyXVtDSF02W0NIMl1bQ0gyXTY=

>  <s_epik_cmdline>  (221) 
J2VwaWtfcHl0aG9uJywgJy1waHQnLCAnMi4wJywgJy1waCcsICc3LjAnLCAnLXRuJywgJzgnLCAnLW1hJywgJzIwMCcsICctaW1hZScsICc8aW5maWxlLm1hZT4nLCAnLW9tYWUnLCAnPG91dGZpbGUubWFlPic=

>  <r_epik_Ionization_Penalty>  (221) 
1.80969

>  <r_epik_Ionization_Penalty_Charging>  (221) 
1.80968

>  <r_epik_Ionization_Penalty_Neutral>  (221) 
3.21949e-06

>  <r_epik_State_Penalty>  (221) 
1.91541

>  <r_epik_Charging_Adjusted_Penalty>  (221) 
3.72509

>  <i_epik_Tot_Q>  (221) 
0

>  <i_epik_Tot_abs_Q>  (221) 
2

>  <s_lp_Force_Field>  (221) 
OPLS3e

>  <r_lp_Energy>  (221) 
95.4324

>  <b_lp_Chiralities_Consistent>  (221) 
1

>  <s_lp_Variant>  (221) 
72:0-3

>  <s_i_glide_gridfile>  (221) 
pfpi4k_grid

>  <i_i_glide_lignum>  (221) 
22

>  <i_i_glide_rotatable_bonds>  (221) 
3

>  <r_i_docking_score>  (221) 
-3.50544

>  <r_i_glide_ligand_efficiency>  (221) 
-0.14606

>  <r_i_glide_ligand_efficiency_sa>  (221) 
-0.42131

>  <r_i_glide_ligand_efficiency_ln>  (221) 
-0.839012

>  <r_i_glide_gscore>  (221) 
-3.50544

>  <r_i_glide_lipo>  (221) 
-0.80133

>  <r_i_glide_hbond>  (221) 
0

>  <r_i_glide_metal>  (221) 
-0

>  <r_i_glide_rewards>  (221) 
-1.25199

>  <r_i_glide_evdw>  (221) 
-26.4295

>  <r_i_glide_ecoul>  (221) 
-3.00502

>  <r_i_glide_erotb>  (221) 
0.350222

>  <r_i_glide_esite>  (221) 
-0.0301079

>  <r_i_glide_emodel>  (221) 
-39.6785

>  <r_i_glide_energy>  (221) 
-29.4345

>  <r_i_glide_einternal>  (221) 
0.876696

>  <r_i_glide_intrahb_reward>  (221) 
-0

>  <i_i_glide_confnum>  (221) 
1

>  <i_i_glide_posenum>  (221) 
5

>  <r_i_glide_eff_state_penalty>  (221) 
0

>  <ligand_id>  (221) 
72

>  <original_smiles>  (221) 
O=C1CC2(O)C3Cc4ccc(O)c5c4C2(CCN3CC2CC2)C1O5

>  <smiles>  (221) 
[H]OC12C([H])([H])C(=O)C3([H])Oc4c([O-])c([H])c([H])c5c4C31C([H])([H])C([H])([H])[N+]([H])(C([H])([H])C1([H])C([H])([H])C1([H])[H])C2([H])C5([H])[H]

$$$$
72:2:1
     RDKit          3D

 45 50  0  0  1  0  0  0  0  0999 V2000
    4.5961   -0.3899    2.7847 O   0  0  0  0  0  0  0  0  0  0  0  0
    4.6948   -1.5366    2.3545 C   0  0  0  0  0  0  0  0  0  0  0  0
    5.6212   -2.0098    1.1794 C   0  0  0  0  0  0  0  0  0  0  0  0
    5.2337   -3.5393    1.0019 C   0  0  2  0  0  0  0  0  0  0  0  0
    6.0985   -4.2465    1.8850 O   0  0  0  0  0  0  0  0  0  0  0  0
    5.0720   -4.4460   -0.2716 C   0  0  1  0  0  0  0  0  0  0  0  0
    4.4390   -5.8438    0.1605 C   0  0  0  0  0  0  0  0  0  0  0  0
    3.3044   -5.8413    1.2270 C   0  0  0  0  0  0  0  0  0  0  0  0
    2.4159   -6.8412    1.6718 C   0  0  0  0  0  0  0  0  0  0  0  0
    1.4888   -6.5267    2.7143 C   0  0  0  0  0  0  0  0  0  0  0  0
    1.4446   -5.2472    3.3462 C   0  0  0  0  0  0  0  0  0  0  0  0
    0.5602   -5.0200    4.3601 O   0  0  0  0  0  0  0  0  0  0  0  0
    2.3396   -4.2315    2.9295 C   0  0  0  0  0  0  0  0  0  0  0  0
    3.1589   -4.6339    1.8899 C   0  0  0  0  0  0  0  0  0  0  0  0
    3.8297   -3.4206    1.5089 C   0  0  2  0  0  0  0  0  0  0  0  0
    2.9069   -2.7092    0.4412 C   0  0  0  0  0  0  0  0  0  0  0  0
    2.8496   -3.5161   -0.8603 C   0  0  0  0  0  0  0  0  0  0  0  0
    4.2191   -3.8421   -1.3448 N   0  0  1  0  0  0  0  0  0  0  0  0
    4.8867   -2.7497   -2.1084 C   0  0  0  0  0  0  0  0  0  0  0  0
    4.2489   -2.5081   -3.4648 C   0  0  0  0  0  0  0  0  0  0  0  0
    4.2207   -1.1071   -4.0575 C   0  0  0  0  0  0  0  0  0  0  0  0
    2.9523   -1.7386   -3.5842 C   0  0  0  0  0  0  0  0  0  0  0  0
    3.9520   -2.7698    2.8513 C   0  0  2  0  0  0  0  0  0  0  0  0
    2.5921   -2.9143    3.3252 O   0  0  0  0  0  0  0  0  0  0  0  0
    5.4115   -1.3836    0.3150 H   0  0  0  0  0  0  0  0  0  0  0  0
    6.6690   -1.8759    1.4476 H   0  0  0  0  0  0  0  0  0  0  0  0
    6.9543   -4.3190    1.4906 H   0  0  0  0  0  0  0  0  0  0  0  0
    6.0564   -4.6449   -0.7089 H   0  0  0  0  0  0  0  0  0  0  0  0
    4.0804   -6.3765   -0.7134 H   0  0  0  0  0  0  0  0  0  0  0  0
    5.2277   -6.4767    0.5577 H   0  0  0  0  0  0  0  0  0  0  0  0
    2.4376   -7.8257    1.2295 H   0  0  0  0  0  0  0  0  0  0  0  0
    0.8094   -7.2956    3.0349 H   0  0  0  0  0  0  0  0  0  0  0  0
    1.8941   -2.5760    0.8163 H   0  0  0  0  0  0  0  0  0  0  0  0
    3.2178   -1.6960    0.1870 H   0  0  0  0  0  0  0  0  0  0  0  0
    2.2992   -4.4477   -0.7028 H   0  0  0  0  0  0  0  0  0  0  0  0
    2.2278   -3.0128   -1.5940 H   0  0  0  0  0  0  0  0  0  0  0  0
    4.8613   -1.8143   -1.5597 H   0  0  0  0  0  0  0  0  0  0  0  0
    5.9414   -2.9940   -2.2717 H   0  0  0  0  0  0  0  0  0  0  0  0
    4.4131   -3.3221   -4.1740 H   0  0  0  0  0  0  0  0  0  0  0  0
    4.6090   -0.2961   -3.4553 H   0  0  0  0  0  0  0  0  0  0  0  0
    4.3199   -0.9859   -5.1280 H   0  0  0  0  0  0  0  0  0  0  0  0
    2.2445   -2.1115   -4.3189 H   0  0  0  0  0  0  0  0  0  0  0  0
    2.5275   -1.2411   -2.7145 H   0  0  0  0  0  0  0  0  0  0  0  0
    4.6106   -3.3028    3.5372 H   0  0  0  0  0  0  0  0  0  0  0  0
    4.0783   -4.5863   -2.0184 H   0  0  0  0  0  0  0  0  0  0  0  0
  1  2  2  0
  2 23  1  0
  2  3  1  0
  3  4  1  0
  3 25  1  0
  3 26  1  0
  4 15  1  0
  4  5  1  1
  4  6  1  0
  5 27  1  0
  6 18  1  0
  6  7  1  0
  6 28  1  6
  7  8  1  0
  7 29  1  0
  7 30  1  0
  8 14  2  0
  8  9  1  0
  9 10  2  0
  9 31  1  0
 10 11  1  0
 10 32  1  0
 11 12  1  0
 11 13  2  0
 13 24  1  0
 13 14  1  0
 14 15  1  0
 15 16  1  6
 15 23  1  0
 16 17  1  0
 16 33  1  0
 16 34  1  0
 17 18  1  0
 17 35  1  0
 17 36  1  0
 18 19  1  0
 18 45  1  6
 19 20  1  0
 19 37  1  0
 19 38  1  0
 20 22  1  0
 20 21  1  0
 20 39  1  0
 21 22  1  0
 21 40  1  0
 21 41  1  0
 22 42  1  0
 22 43  1  0
 23 24  1  0
 23 44  1  1
M  CHG  2  12  -1  18   1
M  END
>  <i_m_ct_stereo_status>  (222) 
1

>  <s_m_source_file>  (222) 
/var/tmp/pbs.5076255.sched01/tmppxy1xzy0/80exjuxwr6.sdf

>  <i_m_source_file_index>  (222) 
22

>  <i_lp_mmshare_version>  (222) 
48012

>  <i_f3d_flags>  (222) 
0

>  <s_epik_input>  (222) 
Tz1DKFtDSDJdMSlbQ0BIXTJPYyhjKFtPSF0pW2NIXVtjSF0zKWM0YzNbQ0gyXVtDQEhdKFtDQEBdMShbQ0BdMjQ1KVtPSF0pTihbQ0gyXVtDSDJdNSlbQ0gyXVtDSF02W0NIMl1bQ0gyXTY=

>  <s_epik_cmdline>  (222) 
J2VwaWtfcHl0aG9uJywgJy1waHQnLCAnMi4wJywgJy1waCcsICc3LjAnLCAnLXRuJywgJzgnLCAnLW1hJywgJzIwMCcsICctaW1hZScsICc8aW5maWxlLm1hZT4nLCAnLW9tYWUnLCAnPG91dGZpbGUubWFlPic=

>  <r_epik_Ionization_Penalty>  (222) 
1.80969

>  <r_epik_Ionization_Penalty_Charging>  (222) 
1.80968

>  <r_epik_Ionization_Penalty_Neutral>  (222) 
3.21949e-06

>  <r_epik_State_Penalty>  (222) 
1.91541

>  <r_epik_Charging_Adjusted_Penalty>  (222) 
3.72509

>  <i_epik_Tot_Q>  (222) 
0

>  <i_epik_Tot_abs_Q>  (222) 
2

>  <s_lp_Force_Field>  (222) 
OPLS3e

>  <r_lp_Energy>  (222) 
95.4324

>  <b_lp_Chiralities_Consistent>  (222) 
1

>  <s_lp_Variant>  (222) 
72:0-3

>  <s_i_glide_gridfile>  (222) 
pfpi4k_grid

>  <i_i_glide_lignum>  (222) 
22

>  <i_i_glide_rotatable_bonds>  (222) 
3

>  <r_i_docking_score>  (222) 
-3.46683

>  <r_i_glide_ligand_efficiency>  (222) 
-0.144451

>  <r_i_glide_ligand_efficiency_sa>  (222) 
-0.41667

>  <r_i_glide_ligand_efficiency_ln>  (222) 
-0.829772

>  <r_i_glide_gscore>  (222) 
-3.46683

>  <r_i_glide_lipo>  (222) 
-0.785814

>  <r_i_glide_hbond>  (222) 
0

>  <r_i_glide_metal>  (222) 
-0

>  <r_i_glide_rewards>  (222) 
-1.25319

>  <r_i_glide_evdw>  (222) 
-26.314

>  <r_i_glide_ecoul>  (222) 
-2.88058

>  <r_i_glide_erotb>  (222) 
0.350222

>  <r_i_glide_esite>  (222) 
-0.0302602

>  <r_i_glide_emodel>  (222) 
-39.3483

>  <r_i_glide_energy>  (222) 
-29.1946

>  <r_i_glide_einternal>  (222) 
0.814482

>  <r_i_glide_intrahb_reward>  (222) 
-0

>  <i_i_glide_confnum>  (222) 
5

>  <i_i_glide_posenum>  (222) 
24

>  <r_i_glide_eff_state_penalty>  (222) 
0

>  <ligand_id>  (222) 
72

>  <original_smiles>  (222) 
O=C1CC2(O)C3Cc4ccc(O)c5c4C2(CCN3CC2CC2)C1O5

>  <smiles>  (222) 
[H]OC12C([H])([H])C(=O)C3([H])Oc4c([O-])c([H])c([H])c5c4C31C([H])([H])C([H])([H])[N+]([H])(C([H])([H])C1([H])C([H])([H])C1([H])[H])C2([H])C5([H])[H]

$$$$
72:2:2
     RDKit          3D

 45 50  0  0  1  0  0  0  0  0999 V2000
    1.6009   -0.3803    2.6775 O   0  0  0  0  0  0  0  0  0  0  0  0
    2.6808   -0.8802    2.3731 C   0  0  0  0  0  0  0  0  0  0  0  0
    3.6933   -0.3510    1.2926 C   0  0  0  0  0  0  0  0  0  0  0  0
    4.8270   -1.4587    1.2773 C   0  0  2  0  0  0  0  0  0  0  0  0
    5.7745   -1.0510    2.2617 O   0  0  0  0  0  0  0  0  0  0  0  0
    5.6594   -2.0932    0.1091 C   0  0  1  0  0  0  0  0  0  0  0  0
    6.4834   -3.3457    0.6539 C   0  0  0  0  0  0  0  0  0  0  0  0
    5.7875   -4.2839    1.6749 C   0  0  0  0  0  0  0  0  0  0  0  0
    6.1375   -5.5434    2.2022 C   0  0  0  0  0  0  0  0  0  0  0  0
    5.2825   -6.1554    3.1690 C   0  0  0  0  0  0  0  0  0  0  0  0
    4.0923   -5.5255    3.6543 C   0  0  0  0  0  0  0  0  0  0  0  0
    3.3224   -6.1423    4.5928 O   0  0  0  0  0  0  0  0  0  0  0  0
    3.7298   -4.2517    3.1567 C   0  0  0  0  0  0  0  0  0  0  0  0
    4.6046   -3.7816    2.1962 C   0  0  0  0  0  0  0  0  0  0  0  0
    3.9543   -2.5985    1.7031 C   0  0  2  0  0  0  0  0  0  0  0  0
    2.9951   -3.0593    0.5256 C   0  0  0  0  0  0  0  0  0  0  0  0
    3.7839   -3.5157   -0.7074 C   0  0  0  0  0  0  0  0  0  0  0  0
    4.8316   -2.5243   -1.0614 N   0  0  1  0  0  0  0  0  0  0  0  0
    4.3345   -1.4051   -1.9021 C   0  0  0  0  0  0  0  0  0  0  0  0
    4.1902   -1.8137   -3.3530 C   0  0  0  0  0  0  0  0  0  0  0  0
    3.4158   -0.9264   -4.3061 C   0  0  0  0  0  0  0  0  0  0  0  0
    2.8490   -2.2586   -3.8856 C   0  0  0  0  0  0  0  0  0  0  0  0
    3.3044   -2.1304    2.9705 C   0  0  2  0  0  0  0  0  0  0  0  0
    2.6834   -3.3564    3.4136 O   0  0  0  0  0  0  0  0  0  0  0  0
    3.1649   -0.2490    0.3467 H   0  0  0  0  0  0  0  0  0  0  0  0
    4.0752    0.6296    1.5792 H   0  0  0  0  0  0  0  0  0  0  0  0
    6.3745   -0.4201    1.8902 H   0  0  0  0  0  0  0  0  0  0  0  0
    6.3825   -1.3615   -0.2599 H   0  0  0  0  0  0  0  0  0  0  0  0
    6.8447   -3.9515   -0.1756 H   0  0  0  0  0  0  0  0  0  0  0  0
    7.3767   -2.9782    1.1539 H   0  0  0  0  0  0  0  0  0  0  0  0
    7.0381   -6.0380    1.8644 H   0  0  0  0  0  0  0  0  0  0  0  0
    5.5502   -7.1288    3.5433 H   0  0  0  0  0  0  0  0  0  0  0  0
    2.3301   -3.8637    0.8433 H   0  0  0  0  0  0  0  0  0  0  0  0
    2.3130   -2.2769    0.1926 H   0  0  0  0  0  0  0  0  0  0  0  0
    4.2470   -4.4832   -0.5106 H   0  0  0  0  0  0  0  0  0  0  0  0
    3.1157   -3.7010   -1.5489 H   0  0  0  0  0  0  0  0  0  0  0  0
    3.3727   -1.0481   -1.5430 H   0  0  0  0  0  0  0  0  0  0  0  0
    5.0261   -0.5639   -1.8635 H   0  0  0  0  0  0  0  0  0  0  0  0
    5.0662   -2.3016   -3.7779 H   0  0  0  0  0  0  0  0  0  0  0  0
    2.9454   -0.0307   -3.9005 H   0  0  0  0  0  0  0  0  0  0  0  0
    3.7635   -0.8426   -5.3316 H   0  0  0  0  0  0  0  0  0  0  0  0
    2.8421   -3.0615   -4.6199 H   0  0  0  0  0  0  0  0  0  0  0  0
    2.0089   -2.2555   -3.1914 H   0  0  0  0  0  0  0  0  0  0  0  0
    4.0133   -1.8158    3.7359 H   0  0  0  0  0  0  0  0  0  0  0  0
    5.4722   -3.0292   -1.6595 H   0  0  0  0  0  0  0  0  0  0  0  0
  1  2  2  0
  2 23  1  0
  2  3  1  0
  3  4  1  0
  3 25  1  0
  3 26  1  0
  4 15  1  0
  4  5  1  1
  4  6  1  0
  5 27  1  0
  6 18  1  0
  6  7  1  0
  6 28  1  6
  7  8  1  0
  7 29  1  0
  7 30  1  0
  8 14  2  0
  8  9  1  0
  9 10  2  0
  9 31  1  0
 10 11  1  0
 10 32  1  0
 11 12  1  0
 11 13  2  0
 13 24  1  0
 13 14  1  0
 14 15  1  0
 15 16  1  6
 15 23  1  0
 16 17  1  0
 16 33  1  0
 16 34  1  0
 17 18  1  0
 17 35  1  0
 17 36  1  0
 18 19  1  0
 18 45  1  6
 19 20  1  0
 19 37  1  0
 19 38  1  0
 20 22  1  0
 20 21  1  0
 20 39  1  0
 21 22  1  0
 21 40  1  0
 21 41  1  0
 22 42  1  0
 22 43  1  0
 23 24  1  0
 23 44  1  1
M  CHG  2  12  -1  18   1
M  END
>  <i_m_ct_stereo_status>  (223) 
1

>  <s_m_source_file>  (223) 
/var/tmp/pbs.5076255.sched01/tmppxy1xzy0/80exjuxwr6.sdf

>  <i_m_source_file_index>  (223) 
22

>  <i_lp_mmshare_version>  (223) 
48012

>  <i_f3d_flags>  (223) 
0

>  <s_epik_input>  (223) 
Tz1DKFtDSDJdMSlbQ0BIXTJPYyhjKFtPSF0pW2NIXVtjSF0zKWM0YzNbQ0gyXVtDQEhdKFtDQEBdMShbQ0BdMjQ1KVtPSF0pTihbQ0gyXVtDSDJdNSlbQ0gyXVtDSF02W0NIMl1bQ0gyXTY=

>  <s_epik_cmdline>  (223) 
J2VwaWtfcHl0aG9uJywgJy1waHQnLCAnMi4wJywgJy1waCcsICc3LjAnLCAnLXRuJywgJzgnLCAnLW1hJywgJzIwMCcsICctaW1hZScsICc8aW5maWxlLm1hZT4nLCAnLW9tYWUnLCAnPG91dGZpbGUubWFlPic=

>  <r_epik_Ionization_Penalty>  (223) 
1.80969

>  <r_epik_Ionization_Penalty_Charging>  (223) 
1.80968

>  <r_epik_Ionization_Penalty_Neutral>  (223) 
3.21949e-06

>  <r_epik_State_Penalty>  (223) 
1.91541

>  <r_epik_Charging_Adjusted_Penalty>  (223) 
3.72509

>  <i_epik_Tot_Q>  (223) 
0

>  <i_epik_Tot_abs_Q>  (223) 
2

>  <s_lp_Force_Field>  (223) 
OPLS3e

>  <r_lp_Energy>  (223) 
95.4324

>  <b_lp_Chiralities_Consistent>  (223) 
1

>  <s_lp_Variant>  (223) 
72:0-3

>  <s_i_glide_gridfile>  (223) 
pfpi4k_grid

>  <i_i_glide_lignum>  (223) 
22

>  <i_i_glide_rotatable_bonds>  (223) 
3

>  <r_i_docking_score>  (223) 
-3.25307

>  <r_i_glide_ligand_efficiency>  (223) 
-0.135545

>  <r_i_glide_ligand_efficiency_sa>  (223) 
-0.390978

>  <r_i_glide_ligand_efficiency_ln>  (223) 
-0.778609

>  <r_i_glide_gscore>  (223) 
-3.25307

>  <r_i_glide_lipo>  (223) 
-0.690378

>  <r_i_glide_hbond>  (223) 
-0.0955845

>  <r_i_glide_metal>  (223) 
-0

>  <r_i_glide_rewards>  (223) 
-1.17699

>  <r_i_glide_evdw>  (223) 
-27.3841

>  <r_i_glide_ecoul>  (223) 
-1.63091

>  <r_i_glide_erotb>  (223) 
0.350222

>  <r_i_glide_esite>  (223) 
-0.0264957

>  <r_i_glide_emodel>  (223) 
-39.3122

>  <r_i_glide_energy>  (223) 
-29.015

>  <r_i_glide_einternal>  (223) 
0.172801

>  <r_i_glide_intrahb_reward>  (223) 
-0

>  <i_i_glide_confnum>  (223) 
1

>  <i_i_glide_posenum>  (223) 
33

>  <r_i_glide_eff_state_penalty>  (223) 
0

>  <ligand_id>  (223) 
72

>  <original_smiles>  (223) 
O=C1CC2(O)C3Cc4ccc(O)c5c4C2(CCN3CC2CC2)C1O5

>  <smiles>  (223) 
[H]OC12C([H])([H])C(=O)C3([H])Oc4c([O-])c([H])c([H])c5c4C31C([H])([H])C([H])([H])[N+]([H])(C([H])([H])C1([H])C([H])([H])C1([H])[H])C2([H])C5([H])[H]

$$$$
74:0:0
     RDKit          3D

 39 42  0  0  1  0  0  0  0  0999 V2000
   -0.7231    4.3952    9.7871 C   0  0  0  0  0  0  0  0  0  0  0  0
   -0.0435    4.5235    8.5498 O   0  0  0  0  0  0  0  0  0  0  0  0
   -0.6795    4.0194    7.4270 C   0  0  0  0  0  0  0  0  0  0  0  0
   -1.9461    3.3971    7.4707 C   0  0  0  0  0  0  0  0  0  0  0  0
   -2.5510    2.9363    6.3089 C   0  0  0  0  0  0  0  0  0  0  0  0
   -1.9306    3.0785    5.0414 C   0  0  0  0  0  0  0  0  0  0  0  0
   -2.6205    2.5617    3.9570 O   0  0  0  0  0  0  0  0  0  0  0  0
   -3.0278    3.3592    2.8608 C   0  0  0  0  0  0  0  0  0  0  0  0
   -0.6469    3.6626    4.9705 C   0  0  0  0  0  0  0  0  0  0  0  0
    0.1488    3.7170    3.6620 C   0  0  2  0  0  0  0  0  0  0  0  0
    0.7517    2.3808    3.2448 C   0  0  0  0  0  0  0  0  0  0  0  0
    0.2285    1.2104    2.8475 C   0  0  0  0  0  0  0  0  0  0  0  0
   -1.0385    0.8176    2.6870 O   0  0  0  0  0  0  0  0  0  0  0  0
    1.2278    0.1470    2.4696 C   0  0  0  0  0  0  0  0  0  0  0  0
    2.4457    1.0009    2.7039 C   0  0  0  0  0  0  0  0  0  0  0  0
    2.1699    2.2292    3.1209 C   0  0  0  0  0  0  0  0  0  0  0  0
    3.0083    3.3060    3.3312 N   0  0  0  0  0  0  0  0  0  0  0  0
    2.5102    4.6062    3.5509 C   0  0  0  0  0  0  0  0  0  0  0  0
    3.1819    5.7438    3.5994 N   0  0  0  0  0  0  0  0  0  0  0  0
    2.1087    6.6025    3.7177 C   0  0  0  0  0  0  0  0  0  0  0  0
    0.9180    6.0503    3.7871 N   0  0  0  0  0  0  0  0  0  0  0  0
    1.2040    4.7365    3.6907 N   0  0  0  0  0  0  0  0  0  0  0  0
   -0.0286    4.1211    6.1698 C   0  0  0  0  0  0  0  0  0  0  0  0
   -0.1547    4.8185   10.6187 H   0  0  0  0  0  0  0  0  0  0  0  0
   -0.9067    3.3566   10.0156 H   0  0  0  0  0  0  0  0  0  0  0  0
   -1.6746    4.9104    9.7513 H   0  0  0  0  0  0  0  0  0  0  0  0
   -2.5306    3.2454    8.3678 H   0  0  0  0  0  0  0  0  0  0  0  0
   -3.5074    2.4500    6.3944 H   0  0  0  0  0  0  0  0  0  0  0  0
   -3.5040    2.7117    2.1222 H   0  0  0  0  0  0  0  0  0  0  0  0
   -2.2831    3.8823    2.2803 H   0  0  0  0  0  0  0  0  0  0  0  0
   -3.7175    4.1032    3.2146 H   0  0  0  0  0  0  0  0  0  0  0  0
   -0.4153    4.1004    2.8366 H   0  0  0  0  0  0  0  0  0  0  0  0
    4.0102    3.2181    3.1250 H   0  0  0  0  0  0  0  0  0  0  0  0
    1.1150   -0.1674    1.4187 H   0  0  0  0  0  0  0  0  0  0  0  0
    1.1663   -0.6970    3.1683 H   0  0  0  0  0  0  0  0  0  0  0  0
    3.4477    0.6271    2.5260 H   0  0  0  0  0  0  0  0  0  0  0  0
    2.2100    7.6850    3.7749 H   0  0  0  0  0  0  0  0  0  0  0  0
    0.9628    4.5808    6.1869 H   0  0  0  0  0  0  0  0  0  0  0  0
   -1.5981    1.5206    2.9862 H   0  0  0  0  0  0  0  0  0  0  0  0
  1  2  1  0
  1 24  1  0
  1 25  1  0
  1 26  1  0
  2  3  1  0
  3 23  2  0
  3  4  1  0
  4  5  2  0
  4 27  1  0
  5  6  1  0
  5 28  1  0
  6  7  1  0
  6  9  2  0
  7  8  1  0
  8 29  1  0
  8 30  1  0
  8 31  1  0
  9 10  1  0
  9 23  1  0
 10 22  1  0
 10 32  1  6
 10 11  1  0
 11 12  2  0
 11 16  1  0
 12 13  1  0
 12 14  1  0
 13 39  1  0
 14 15  1  0
 14 34  1  0
 14 35  1  0
 15 36  1  0
 15 16  2  0
 16 17  1  0
 17 18  1  0
 17 33  1  0
 18 22  1  0
 18 19  2  0
 19 20  1  0
 20 21  2  0
 20 37  1  0
 21 22  1  0
 23 38  1  0
M  END
>  <i_m_ct_stereo_status>  (224) 
1

>  <s_m_source_file>  (224) 
/var/tmp/pbs.5076255.sched01/tmppxy1xzy0/80exjuxwr6.sdf

>  <i_m_source_file_index>  (224) 
24

>  <i_lp_mmshare_version>  (224) 
48012

>  <i_f3d_flags>  (224) 
0

>  <s_epik_input>  (224) 
W0NIM11PYzFbY0hdW2NIXWMoT1tDSDNdKWMoW2NIXTEpW0NASF0ybihuW2NIXW4zKWMzTj1DKFtDQEBIXTI0KVtDSDJdW0NIMl1DND1P

>  <s_epik_cmdline>  (224) 
J2VwaWtfcHl0aG9uJywgJy1waHQnLCAnMi4wJywgJy1waCcsICc3LjAnLCAnLXRuJywgJzgnLCAnLW1hJywgJzIwMCcsICctaW1hZScsICc8aW5maWxlLm1hZT4nLCAnLW9tYWUnLCAnPG91dGZpbGUubWFlPic=

>  <r_lp_tautomer_probability>  (224) 
1

>  <r_epik_Ionization_Penalty>  (224) 
0.383504

>  <r_epik_Ionization_Penalty_Charging>  (224) 
1.06348e-10

>  <r_epik_Ionization_Penalty_Neutral>  (224) 
0.383504

>  <r_epik_State_Penalty>  (224) 
0.381678

>  <r_epik_Charging_Adjusted_Penalty>  (224) 
0.381678

>  <i_epik_Tot_Q>  (224) 
0

>  <i_epik_Tot_abs_Q>  (224) 
0

>  <s_epik_Chemistry_Notes>  (224) 
This compound has an imine and may undergo hydrolysis.

>  <s_lp_Force_Field>  (224) 
OPLS3e

>  <r_lp_Energy>  (224) 
28.4849

>  <b_lp_Chiralities_Consistent>  (224) 
1

>  <s_lp_Variant>  (224) 
74:0-1

>  <s_i_glide_gridfile>  (224) 
pfpi4k_grid

>  <i_i_glide_lignum>  (224) 
24

>  <i_i_glide_rotatable_bonds>  (224) 
4

>  <r_i_docking_score>  (224) 
-3.93907

>  <r_i_glide_ligand_efficiency>  (224) 
-0.171264

>  <r_i_glide_ligand_efficiency_sa>  (224) 
-0.487051

>  <r_i_glide_ligand_efficiency_ln>  (224) 
-0.952502

>  <r_i_glide_gscore>  (224) 
-3.93907

>  <r_i_glide_lipo>  (224) 
-0.187218

>  <r_i_glide_hbond>  (224) 
-0.32

>  <r_i_glide_metal>  (224) 
-0

>  <r_i_glide_rewards>  (224) 
-1.77961

>  <r_i_glide_evdw>  (224) 
-23.0246

>  <r_i_glide_ecoul>  (224) 
-3.53339

>  <r_i_glide_erotb>  (224) 
0.19025

>  <r_i_glide_esite>  (224) 
-0.161247

>  <r_i_glide_emodel>  (224) 
-31.6169

>  <r_i_glide_energy>  (224) 
-26.558

>  <r_i_glide_einternal>  (224) 
11.6774

>  <r_i_glide_intrahb_reward>  (224) 
-0.5

>  <i_i_glide_confnum>  (224) 
4

>  <i_i_glide_posenum>  (224) 
11

>  <r_i_glide_eff_state_penalty>  (224) 
0

>  <ligand_id>  (224) 
74

>  <original_smiles>  (224) 
COc1ccc(OC)c(C2C3C(=O)CCC3=Nc3ncnn32)c1

>  <smiles>  (224) 
[H]OC1=C2C(=C([H])C1([H])[H])N([H])c1nc([H])nn1C2([H])c1c([H])c(OC([H])([H])[H])c([H])c([H])c1OC([H])([H])[H]

$$$$
74:0:1
     RDKit          3D

 39 42  0  0  1  0  0  0  0  0999 V2000
   -2.0677    3.3564    9.4540 C   0  0  0  0  0  0  0  0  0  0  0  0
   -0.9902    3.4035    8.5188 O   0  0  0  0  0  0  0  0  0  0  0  0
   -1.3023    3.3618    7.1754 C   0  0  0  0  0  0  0  0  0  0  0  0
   -2.6258    3.2737    6.7062 C   0  0  0  0  0  0  0  0  0  0  0  0
   -2.8952    3.2459    5.3402 C   0  0  0  0  0  0  0  0  0  0  0  0
   -1.8665    3.2992    4.3821 C   0  0  0  0  0  0  0  0  0  0  0  0
   -2.1229    3.2536    3.0267 O   0  0  0  0  0  0  0  0  0  0  0  0
   -3.4749    3.3483    2.5825 C   0  0  0  0  0  0  0  0  0  0  0  0
   -0.5255    3.3893    4.8316 C   0  0  0  0  0  0  0  0  0  0  0  0
    0.6237    3.4302    3.8195 C   0  0  2  0  0  0  0  0  0  0  0  0
    1.2237    2.0499    3.5714 C   0  0  0  0  0  0  0  0  0  0  0  0
    0.7326    0.9477    2.9735 C   0  0  0  0  0  0  0  0  0  0  0  0
   -0.4674    0.7388    2.4242 O   0  0  0  0  0  0  0  0  0  0  0  0
    1.7091   -0.2063    2.9277 C   0  0  0  0  0  0  0  0  0  0  0  0
    2.8711    0.4931    3.6161 C   0  0  0  0  0  0  0  0  0  0  0  0
    2.5757    1.7534    3.9456 C   0  0  0  0  0  0  0  0  0  0  0  0
    3.3872    2.7169    4.5216 N   0  0  0  0  0  0  0  0  0  0  0  0
    2.9531    4.0404    4.6049 C   0  0  0  0  0  0  0  0  0  0  0  0
    3.6776    5.0843    4.9660 N   0  0  0  0  0  0  0  0  0  0  0  0
    2.7453    6.0712    4.7745 C   0  0  0  0  0  0  0  0  0  0  0  0
    1.5372    5.6864    4.3563 N   0  0  0  0  0  0  0  0  0  0  0  0
    1.6954    4.3449    4.2463 N   0  0  0  0  0  0  0  0  0  0  0  0
   -0.2587    3.4119    6.2259 C   0  0  0  0  0  0  0  0  0  0  0  0
   -1.7196    3.3975   10.4897 H   0  0  0  0  0  0  0  0  0  0  0  0
   -2.6310    2.4299    9.3372 H   0  0  0  0  0  0  0  0  0  0  0  0
   -2.7418    4.2008    9.3029 H   0  0  0  0  0  0  0  0  0  0  0  0
   -3.4791    3.2237    7.3553 H   0  0  0  0  0  0  0  0  0  0  0  0
   -3.9283    3.1691    5.0557 H   0  0  0  0  0  0  0  0  0  0  0  0
   -3.5356    3.2931    1.5009 H   0  0  0  0  0  0  0  0  0  0  0  0
   -3.9167    4.2999    2.8611 H   0  0  0  0  0  0  0  0  0  0  0  0
   -4.1040    2.5482    2.9657 H   0  0  0  0  0  0  0  0  0  0  0  0
    0.2569    3.8212    2.8760 H   0  0  0  0  0  0  0  0  0  0  0  0
    4.3537    2.5104    4.7274 H   0  0  0  0  0  0  0  0  0  0  0  0
    1.9589   -0.4999    1.9076 H   0  0  0  0  0  0  0  0  0  0  0  0
    1.3616   -1.0656    3.4964 H   0  0  0  0  0  0  0  0  0  0  0  0
    3.8238    0.0088    3.7735 H   0  0  0  0  0  0  0  0  0  0  0  0
    2.9690    7.1117    4.9531 H   0  0  0  0  0  0  0  0  0  0  0  0
    0.7599    3.4724    6.5870 H   0  0  0  0  0  0  0  0  0  0  0  0
   -0.9268    1.5636    2.4577 H   0  0  0  0  0  0  0  0  0  0  0  0
  1  2  1  0
  1 24  1  0
  1 25  1  0
  1 26  1  0
  2  3  1  0
  3 23  2  0
  3  4  1  0
  4  5  2  0
  4 27  1  0
  5  6  1  0
  5 28  1  0
  6  7  1  0
  6  9  2  0
  7  8  1  0
  8 29  1  0
  8 30  1  0
  8 31  1  0
  9 10  1  0
  9 23  1  0
 10 22  1  0
 10 32  1  6
 10 11  1  0
 11 12  2  0
 11 16  1  0
 12 13  1  0
 12 14  1  0
 13 39  1  0
 14 15  1  0
 14 34  1  0
 14 35  1  0
 15 36  1  0
 15 16  2  0
 16 17  1  0
 17 18  1  0
 17 33  1  0
 18 22  1  0
 18 19  2  0
 19 20  1  0
 20 21  2  0
 20 37  1  0
 21 22  1  0
 23 38  1  0
M  END
>  <i_m_ct_stereo_status>  (225) 
1

>  <s_m_source_file>  (225) 
/var/tmp/pbs.5076255.sched01/tmppxy1xzy0/80exjuxwr6.sdf

>  <i_m_source_file_index>  (225) 
24

>  <i_lp_mmshare_version>  (225) 
48012

>  <i_f3d_flags>  (225) 
0

>  <s_epik_input>  (225) 
W0NIM11PYzFbY0hdW2NIXWMoT1tDSDNdKWMoW2NIXTEpW0NASF0ybihuW2NIXW4zKWMzTj1DKFtDQEBIXTI0KVtDSDJdW0NIMl1DND1P

>  <s_epik_cmdline>  (225) 
J2VwaWtfcHl0aG9uJywgJy1waHQnLCAnMi4wJywgJy1waCcsICc3LjAnLCAnLXRuJywgJzgnLCAnLW1hJywgJzIwMCcsICctaW1hZScsICc8aW5maWxlLm1hZT4nLCAnLW9tYWUnLCAnPG91dGZpbGUubWFlPic=

>  <r_lp_tautomer_probability>  (225) 
1

>  <r_epik_Ionization_Penalty>  (225) 
0.383504

>  <r_epik_Ionization_Penalty_Charging>  (225) 
1.06348e-10

>  <r_epik_Ionization_Penalty_Neutral>  (225) 
0.383504

>  <r_epik_State_Penalty>  (225) 
0.381678

>  <r_epik_Charging_Adjusted_Penalty>  (225) 
0.381678

>  <i_epik_Tot_Q>  (225) 
0

>  <i_epik_Tot_abs_Q>  (225) 
0

>  <s_epik_Chemistry_Notes>  (225) 
This compound has an imine and may undergo hydrolysis.

>  <s_lp_Force_Field>  (225) 
OPLS3e

>  <r_lp_Energy>  (225) 
28.4849

>  <b_lp_Chiralities_Consistent>  (225) 
1

>  <s_lp_Variant>  (225) 
74:0-1

>  <s_i_glide_gridfile>  (225) 
pfpi4k_grid

>  <i_i_glide_lignum>  (225) 
24

>  <i_i_glide_rotatable_bonds>  (225) 
4

>  <r_i_docking_score>  (225) 
-2.95138

>  <r_i_glide_ligand_efficiency>  (225) 
-0.128321

>  <r_i_glide_ligand_efficiency_sa>  (225) 
-0.364928

>  <r_i_glide_ligand_efficiency_ln>  (225) 
-0.713671

>  <r_i_glide_gscore>  (225) 
-2.95138

>  <r_i_glide_lipo>  (225) 
-0.18999

>  <r_i_glide_hbond>  (225) 
0

>  <r_i_glide_metal>  (225) 
-0

>  <r_i_glide_rewards>  (225) 
-1.77961

>  <r_i_glide_evdw>  (225) 
-21.0108

>  <r_i_glide_ecoul>  (225) 
-0.45228

>  <r_i_glide_erotb>  (225) 
0.19025

>  <r_i_glide_esite>  (225) 
-0.0536424

>  <r_i_glide_emodel>  (225) 
-30.116

>  <r_i_glide_energy>  (225) 
-21.4631

>  <r_i_glide_einternal>  (225) 
3.75374

>  <r_i_glide_intrahb_reward>  (225) 
-0.5

>  <i_i_glide_confnum>  (225) 
2

>  <i_i_glide_posenum>  (225) 
16

>  <r_i_glide_eff_state_penalty>  (225) 
0

>  <ligand_id>  (225) 
74

>  <original_smiles>  (225) 
COc1ccc(OC)c(C2C3C(=O)CCC3=Nc3ncnn32)c1

>  <smiles>  (225) 
[H]OC1=C2C(=C([H])C1([H])[H])N([H])c1nc([H])nn1C2([H])c1c([H])c(OC([H])([H])[H])c([H])c([H])c1OC([H])([H])[H]

$$$$
74:0:2
     RDKit          3D

 39 42  0  0  1  0  0  0  0  0999 V2000
    0.6294    1.9841    8.6104 C   0  0  0  0  0  0  0  0  0  0  0  0
   -0.7573    2.1337    8.3391 O   0  0  0  0  0  0  0  0  0  0  0  0
   -1.1288    2.6034    7.0995 C   0  0  0  0  0  0  0  0  0  0  0  0
   -2.5050    2.7681    6.8644 C   0  0  0  0  0  0  0  0  0  0  0  0
   -2.9716    3.2170    5.6166 C   0  0  0  0  0  0  0  0  0  0  0  0
   -2.0699    3.5256    4.5736 C   0  0  0  0  0  0  0  0  0  0  0  0
   -2.4982    4.0201    3.3597 O   0  0  0  0  0  0  0  0  0  0  0  0
   -3.5762    3.3488    2.7156 C   0  0  0  0  0  0  0  0  0  0  0  0
   -0.6821    3.3791    4.8102 C   0  0  0  0  0  0  0  0  0  0  0  0
    0.3259    3.6749    3.7077 C   0  0  2  0  0  0  0  0  0  0  0  0
    1.0129    2.4010    3.2179 C   0  0  0  0  0  0  0  0  0  0  0  0
    0.5640    1.3395    2.5343 C   0  0  0  0  0  0  0  0  0  0  0  0
   -0.6671    1.0647    2.0952 O   0  0  0  0  0  0  0  0  0  0  0  0
    1.6172    0.2979    2.2356 C   0  0  0  0  0  0  0  0  0  0  0  0
    2.7783    1.0209    2.8971 C   0  0  0  0  0  0  0  0  0  0  0  0
    2.4102    2.1938    3.4291 C   0  0  0  0  0  0  0  0  0  0  0  0
    3.1884    3.1458    4.0676 N   0  0  0  0  0  0  0  0  0  0  0  0
    2.6620    4.4052    4.3505 C   0  0  0  0  0  0  0  0  0  0  0  0
    3.3329    5.4697    4.7658 N   0  0  0  0  0  0  0  0  0  0  0  0
    2.3046    6.3752    4.7932 C   0  0  0  0  0  0  0  0  0  0  0  0
    1.0931    5.9188    4.4670 N   0  0  0  0  0  0  0  0  0  0  0  0
    1.3496    4.6212    4.1672 N   0  0  0  0  0  0  0  0  0  0  0  0
   -0.2231    2.9081    6.0587 C   0  0  0  0  0  0  0  0  0  0  0  0
    0.7572    1.6111    9.6270 H   0  0  0  0  0  0  0  0  0  0  0  0
    1.1599    2.9334    8.5375 H   0  0  0  0  0  0  0  0  0  0  0  0
    1.0908    1.2617    7.9354 H   0  0  0  0  0  0  0  0  0  0  0  0
   -3.2095    2.5565    7.6530 H   0  0  0  0  0  0  0  0  0  0  0  0
   -4.0341    3.3409    5.4757 H   0  0  0  0  0  0  0  0  0  0  0  0
   -3.7964    3.8338    1.7658 H   0  0  0  0  0  0  0  0  0  0  0  0
   -4.5009    3.3457    3.2898 H   0  0  0  0  0  0  0  0  0  0  0  0
   -3.2826    2.3283    2.4821 H   0  0  0  0  0  0  0  0  0  0  0  0
   -0.1661    4.1601    2.8803 H   0  0  0  0  0  0  0  0  0  0  0  0
    4.1874    3.0338    4.0884 H   0  0  0  0  0  0  0  0  0  0  0  0
    1.7838    0.1663    1.1650 H   0  0  0  0  0  0  0  0  0  0  0  0
    1.4111   -0.6540    2.7224 H   0  0  0  0  0  0  0  0  0  0  0  0
    3.7802    0.6261    2.8999 H   0  0  0  0  0  0  0  0  0  0  0  0
    2.4545    7.4097    5.0791 H   0  0  0  0  0  0  0  0  0  0  0  0
    0.8410    2.7928    6.1909 H   0  0  0  0  0  0  0  0  0  0  0  0
   -1.1921    1.8251    2.2833 H   0  0  0  0  0  0  0  0  0  0  0  0
  1  2  1  0
  1 24  1  0
  1 25  1  0
  1 26  1  0
  2  3  1  0
  3 23  2  0
  3  4  1  0
  4  5  2  0
  4 27  1  0
  5  6  1  0
  5 28  1  0
  6  7  1  0
  6  9  2  0
  7  8  1  0
  8 29  1  0
  8 30  1  0
  8 31  1  0
  9 10  1  0
  9 23  1  0
 10 22  1  0
 10 32  1  6
 10 11  1  0
 11 12  2  0
 11 16  1  0
 12 13  1  0
 12 14  1  0
 13 39  1  0
 14 15  1  0
 14 34  1  0
 14 35  1  0
 15 36  1  0
 15 16  2  0
 16 17  1  0
 17 18  1  0
 17 33  1  0
 18 22  1  0
 18 19  2  0
 19 20  1  0
 20 21  2  0
 20 37  1  0
 21 22  1  0
 23 38  1  0
M  END
>  <i_m_ct_stereo_status>  (226) 
1

>  <s_m_source_file>  (226) 
/var/tmp/pbs.5076255.sched01/tmppxy1xzy0/80exjuxwr6.sdf

>  <i_m_source_file_index>  (226) 
24

>  <i_lp_mmshare_version>  (226) 
48012

>  <i_f3d_flags>  (226) 
0

>  <s_epik_input>  (226) 
W0NIM11PYzFbY0hdW2NIXWMoT1tDSDNdKWMoW2NIXTEpW0NASF0ybihuW2NIXW4zKWMzTj1DKFtDQEBIXTI0KVtDSDJdW0NIMl1DND1P

>  <s_epik_cmdline>  (226) 
J2VwaWtfcHl0aG9uJywgJy1waHQnLCAnMi4wJywgJy1waCcsICc3LjAnLCAnLXRuJywgJzgnLCAnLW1hJywgJzIwMCcsICctaW1hZScsICc8aW5maWxlLm1hZT4nLCAnLW9tYWUnLCAnPG91dGZpbGUubWFlPic=

>  <r_lp_tautomer_probability>  (226) 
1

>  <r_epik_Ionization_Penalty>  (226) 
0.383504

>  <r_epik_Ionization_Penalty_Charging>  (226) 
1.06348e-10

>  <r_epik_Ionization_Penalty_Neutral>  (226) 
0.383504

>  <r_epik_State_Penalty>  (226) 
0.381678

>  <r_epik_Charging_Adjusted_Penalty>  (226) 
0.381678

>  <i_epik_Tot_Q>  (226) 
0

>  <i_epik_Tot_abs_Q>  (226) 
0

>  <s_epik_Chemistry_Notes>  (226) 
This compound has an imine and may undergo hydrolysis.

>  <s_lp_Force_Field>  (226) 
OPLS3e

>  <r_lp_Energy>  (226) 
28.4849

>  <b_lp_Chiralities_Consistent>  (226) 
1

>  <s_lp_Variant>  (226) 
74:0-1

>  <s_i_glide_gridfile>  (226) 
pfpi4k_grid

>  <i_i_glide_lignum>  (226) 
24

>  <i_i_glide_rotatable_bonds>  (226) 
4

>  <r_i_docking_score>  (226) 
-2.86443

>  <r_i_glide_ligand_efficiency>  (226) 
-0.12454

>  <r_i_glide_ligand_efficiency_sa>  (226) 
-0.354176

>  <r_i_glide_ligand_efficiency_ln>  (226) 
-0.692644

>  <r_i_glide_gscore>  (226) 
-2.86443

>  <r_i_glide_lipo>  (226) 
-0.185586

>  <r_i_glide_hbond>  (226) 
-0.0316533

>  <r_i_glide_metal>  (226) 
-0

>  <r_i_glide_rewards>  (226) 
-1.27961

>  <r_i_glide_evdw>  (226) 
-22.1819

>  <r_i_glide_ecoul>  (226) 
-2.46834

>  <r_i_glide_erotb>  (226) 
0.19025

>  <r_i_glide_esite>  (226) 
-0.0784754

>  <r_i_glide_emodel>  (226) 
-28.2854

>  <r_i_glide_energy>  (226) 
-24.6502

>  <r_i_glide_einternal>  (226) 
3.57738

>  <r_i_glide_intrahb_reward>  (226) 
-0

>  <i_i_glide_confnum>  (226) 
4

>  <i_i_glide_posenum>  (226) 
17

>  <r_i_glide_eff_state_penalty>  (226) 
0

>  <ligand_id>  (226) 
74

>  <original_smiles>  (226) 
COc1ccc(OC)c(C2C3C(=O)CCC3=Nc3ncnn32)c1

>  <smiles>  (226) 
[H]OC1=C2C(=C([H])C1([H])[H])N([H])c1nc([H])nn1C2([H])c1c([H])c(OC([H])([H])[H])c([H])c([H])c1OC([H])([H])[H]

$$$$
74:1:0
     RDKit          3D

 38 41  0  0  1  0  0  0  0  0999 V2000
    2.6947    2.2967    8.4151 C   0  0  0  0  0  0  0  0  0  0  0  0
    1.3227    2.3893    8.7835 O   0  0  0  0  0  0  0  0  0  0  0  0
    0.4130    2.6814    7.7927 C   0  0  0  0  0  0  0  0  0  0  0  0
   -0.9442    2.7718    8.1716 C   0  0  0  0  0  0  0  0  0  0  0  0
   -1.9368    3.0647    7.2116 C   0  0  0  0  0  0  0  0  0  0  0  0
   -1.5978    3.2612    5.8480 C   0  0  0  0  0  0  0  0  0  0  0  0
   -2.5934    3.5837    4.9535 O   0  0  0  0  0  0  0  0  0  0  0  0
   -2.8356    2.7402    3.8188 C   0  0  0  0  0  0  0  0  0  0  0  0
   -0.2348    3.2137    5.4719 C   0  0  0  0  0  0  0  0  0  0  0  0
    0.2079    3.4732    4.0351 C   0  0  2  0  0  0  0  0  0  0  0  0
    0.8398    2.2199    3.4208 C   0  0  0  0  0  0  0  0  0  0  0  0
    0.3112    0.9730    3.1246 C   0  0  0  0  0  0  0  0  0  0  0  0
   -0.7697    0.3721    3.2471 O   0  0  0  0  0  0  0  0  0  0  0  0
    1.3745    0.0862    2.4984 C   0  0  0  0  0  0  0  0  0  0  0  0
    2.5443    1.0266    2.5259 C   0  0  0  0  0  0  0  0  0  0  0  0
    2.2260    2.2153    3.0334 C   0  0  0  0  0  0  0  0  0  0  0  0
    3.0168    3.3432    3.1765 N   0  0  0  0  0  0  0  0  0  0  0  0
    2.4414    4.5606    3.5606 C   0  0  0  0  0  0  0  0  0  0  0  0
    2.9917    5.7648    3.5285 N   0  0  0  0  0  0  0  0  0  0  0  0
    1.8953    6.5230    3.8814 C   0  0  0  0  0  0  0  0  0  0  0  0
    0.7820    5.8489    4.1669 N   0  0  0  0  0  0  0  0  0  0  0  0
    1.1673    4.5723    3.9636 N   0  0  0  0  0  0  0  0  0  0  0  0
    0.7529    2.9030    6.4349 C   0  0  0  0  0  0  0  0  0  0  0  0
    3.2841    2.0574    9.2985 H   0  0  0  0  0  0  0  0  0  0  0  0
    3.0704    3.2401    8.0135 H   0  0  0  0  0  0  0  0  0  0  0  0
    2.8636    1.5050    7.6831 H   0  0  0  0  0  0  0  0  0  0  0  0
   -1.2161    2.6189    9.2054 H   0  0  0  0  0  0  0  0  0  0  0  0
   -2.9671    3.1435    7.5306 H   0  0  0  0  0  0  0  0  0  0  0  0
   -3.6695    3.1359    3.2338 H   0  0  0  0  0  0  0  0  0  0  0  0
   -3.0063    1.7225    4.1170 H   0  0  0  0  0  0  0  0  0  0  0  0
   -2.0523    2.6232    3.0929 H   0  0  0  0  0  0  0  0  0  0  0  0
   -0.5635    3.8757    3.3942 H   0  0  0  0  0  0  0  0  0  0  0  0
    3.9686    3.3400    2.8039 H   0  0  0  0  0  0  0  0  0  0  0  0
    1.1117   -0.2107    1.4780 H   0  0  0  0  0  0  0  0  0  0  0  0
    1.5459   -0.7957    3.1152 H   0  0  0  0  0  0  0  0  0  0  0  0
    3.5116    0.7385    2.1436 H   0  0  0  0  0  0  0  0  0  0  0  0
    1.9102    7.5942    3.9646 H   0  0  0  0  0  0  0  0  0  0  0  0
    1.7811    2.8467    6.1001 H   0  0  0  0  0  0  0  0  0  0  0  0
  1  2  1  0
  1 24  1  0
  1 25  1  0
  1 26  1  0
  2  3  1  0
  3 23  2  0
  3  4  1  0
  4  5  2  0
  4 27  1  0
  5  6  1  0
  5 28  1  0
  6  7  1  0
  6  9  2  0
  7  8  1  0
  8 29  1  0
  8 30  1  0
  8 31  1  0
  9 10  1  0
  9 23  1  0
 10 22  1  0
 10 32  1  6
 10 11  1  0
 11 12  2  0
 11 16  1  0
 12 13  1  0
 12 14  1  0
 14 15  1  0
 14 34  1  0
 14 35  1  0
 15 36  1  0
 15 16  2  0
 16 17  1  0
 17 18  1  0
 17 33  1  0
 18 22  1  0
 18 19  2  0
 19 20  1  0
 20 21  2  0
 20 37  1  0
 21 22  1  0
 23 38  1  0
M  CHG  1  13  -1
M  END
>  <i_m_ct_stereo_status>  (227) 
1

>  <s_m_source_file>  (227) 
/var/tmp/pbs.5076255.sched01/tmppxy1xzy0/80exjuxwr6.sdf

>  <i_m_source_file_index>  (227) 
25

>  <i_lp_mmshare_version>  (227) 
48012

>  <i_f3d_flags>  (227) 
0

>  <s_epik_input>  (227) 
W0NIM11PYzFbY0hdW2NIXWMoT1tDSDNdKWMoW2NIXTEpW0NASF0ybihuW2NIXW4zKWMzTj1DKFtDQEBIXTI0KVtDSDJdW0NIMl1DND1P

>  <s_epik_cmdline>  (227) 
J2VwaWtfcHl0aG9uJywgJy1waHQnLCAnMi4wJywgJy1waCcsICc3LjAnLCAnLXRuJywgJzgnLCAnLW1hJywgJzIwMCcsICctaW1hZScsICc8aW5maWxlLm1hZT4nLCAnLW9tYWUnLCAnPG91dGZpbGUubWFlPic=

>  <r_lp_tautomer_probability>  (227) 
1

>  <r_epik_Ionization_Penalty>  (227) 
0.439215

>  <r_epik_Ionization_Penalty_Charging>  (227) 
0.439214

>  <r_epik_Ionization_Penalty_Neutral>  (227) 
3.08097e-07

>  <r_epik_State_Penalty>  (227) 
0.441175

>  <r_epik_Charging_Adjusted_Penalty>  (227) 
0.88039

>  <i_epik_Tot_Q>  (227) 
-1

>  <i_epik_Tot_abs_Q>  (227) 
1

>  <s_epik_Chemistry_Notes>  (227) 
This compound has an imine and may undergo hydrolysis.

>  <s_lp_Force_Field>  (227) 
OPLS3e

>  <r_lp_Energy>  (227) 
29.1353

>  <b_lp_Chiralities_Consistent>  (227) 
1

>  <s_lp_Variant>  (227) 
74:0-2

>  <s_i_glide_gridfile>  (227) 
pfpi4k_grid

>  <i_i_glide_lignum>  (227) 
25

>  <i_i_glide_rotatable_bonds>  (227) 
3

>  <r_i_docking_score>  (227) 
-3.28263

>  <r_i_glide_ligand_efficiency>  (227) 
-0.142723

>  <r_i_glide_ligand_efficiency_sa>  (227) 
-0.405886

>  <r_i_glide_ligand_efficiency_ln>  (227) 
-0.793771

>  <r_i_glide_gscore>  (227) 
-3.28263

>  <r_i_glide_lipo>  (227) 
-0.0752678

>  <r_i_glide_hbond>  (227) 
-0.32

>  <r_i_glide_metal>  (227) 
-0

>  <r_i_glide_rewards>  (227) 
-1.28649

>  <r_i_glide_evdw>  (227) 
-19.8309

>  <r_i_glide_ecoul>  (227) 
-4.29803

>  <r_i_glide_erotb>  (227) 
0.191333

>  <r_i_glide_esite>  (227) 
-0.155963

>  <r_i_glide_emodel>  (227) 
-26.6169

>  <r_i_glide_energy>  (227) 
-24.129

>  <r_i_glide_einternal>  (227) 
7.3527

>  <r_i_glide_intrahb_reward>  (227) 
-0

>  <i_i_glide_confnum>  (227) 
3

>  <i_i_glide_posenum>  (227) 
21

>  <r_i_glide_eff_state_penalty>  (227) 
0

>  <ligand_id>  (227) 
74

>  <original_smiles>  (227) 
COc1ccc(OC)c(C2C3C(=O)CCC3=Nc3ncnn32)c1

>  <smiles>  (227) 
[H]C1=C2C(=C([O-])C1([H])[H])C([H])(c1c([H])c(OC([H])([H])[H])c([H])c([H])c1OC([H])([H])[H])n1nc([H])nc1N2[H]

$$$$
74:1:1
     RDKit          3D

 38 41  0  0  1  0  0  0  0  0999 V2000
    4.1141    2.1802    6.7171 C   0  0  0  0  0  0  0  0  0  0  0  0
    3.4442    1.8508    7.9269 O   0  0  0  0  0  0  0  0  0  0  0  0
    2.1997    2.3974    8.1517 C   0  0  0  0  0  0  0  0  0  0  0  0
    1.5538    2.0542    9.3525 C   0  0  0  0  0  0  0  0  0  0  0  0
    0.2822    2.5717    9.6611 C   0  0  0  0  0  0  0  0  0  0  0  0
   -0.3744    3.4626    8.7737 C   0  0  0  0  0  0  0  0  0  0  0  0
   -1.6194    3.9982    9.0424 O   0  0  0  0  0  0  0  0  0  0  0  0
   -2.2896    3.6197   10.2432 C   0  0  0  0  0  0  0  0  0  0  0  0
    0.2754    3.8203    7.5595 C   0  0  0  0  0  0  0  0  0  0  0  0
   -0.3872    4.7661    6.5474 C   0  0  2  0  0  0  0  0  0  0  0  0
   -1.1132    4.0083    5.4495 C   0  0  0  0  0  0  0  0  0  0  0  0
   -2.2542    3.2454    5.5258 C   0  0  0  0  0  0  0  0  0  0  0  0
   -3.0472    2.9016    6.4283 O   0  0  0  0  0  0  0  0  0  0  0  0
   -2.6268    2.7094    4.1430 C   0  0  0  0  0  0  0  0  0  0  0  0
   -1.5163    3.3218    3.3206 C   0  0  0  0  0  0  0  0  0  0  0  0
   -0.7006    4.0554    4.0774 C   0  0  0  0  0  0  0  0  0  0  0  0
    0.3783    4.8232    3.6849 N   0  0  0  0  0  0  0  0  0  0  0  0
    0.9894    5.6721    4.6093 C   0  0  0  0  0  0  0  0  0  0  0  0
    1.9367    6.5674    4.3627 N   0  0  0  0  0  0  0  0  0  0  0  0
    2.0223    7.1459    5.6022 C   0  0  0  0  0  0  0  0  0  0  0  0
    1.2380    6.6384    6.5558 N   0  0  0  0  0  0  0  0  0  0  0  0
    0.5830    5.6560    5.8942 N   0  0  0  0  0  0  0  0  0  0  0  0
    1.5450    3.2749    7.2570 C   0  0  0  0  0  0  0  0  0  0  0  0
    5.0749    1.6664    6.6942 H   0  0  0  0  0  0  0  0  0  0  0  0
    4.3119    3.2509    6.6442 H   0  0  0  0  0  0  0  0  0  0  0  0
    3.5473    1.8571    5.8424 H   0  0  0  0  0  0  0  0  0  0  0  0
    2.0420    1.3859   10.0437 H   0  0  0  0  0  0  0  0  0  0  0  0
   -0.1653    2.2712   10.5971 H   0  0  0  0  0  0  0  0  0  0  0  0
   -3.2498    4.1324   10.2953 H   0  0  0  0  0  0  0  0  0  0  0  0
   -1.7235    3.9070   11.1299 H   0  0  0  0  0  0  0  0  0  0  0  0
   -2.4939    2.5486   10.2832 H   0  0  0  0  0  0  0  0  0  0  0  0
   -1.1038    5.3993    7.0654 H   0  0  0  0  0  0  0  0  0  0  0  0
    0.6195    4.8765    2.6969 H   0  0  0  0  0  0  0  0  0  0  0  0
   -3.6026    3.0627    3.8056 H   0  0  0  0  0  0  0  0  0  0  0  0
   -2.5843    1.6225    4.0954 H   0  0  0  0  0  0  0  0  0  0  0  0
   -1.4353    3.1850    2.2564 H   0  0  0  0  0  0  0  0  0  0  0  0
    2.6872    7.9719    5.8123 H   0  0  0  0  0  0  0  0  0  0  0  0
    2.0109    3.5504    6.3243 H   0  0  0  0  0  0  0  0  0  0  0  0
  1  2  1  0
  1 24  1  0
  1 25  1  0
  1 26  1  0
  2  3  1  0
  3 23  2  0
  3  4  1  0
  4  5  2  0
  4 27  1  0
  5  6  1  0
  5 28  1  0
  6  7  1  0
  6  9  2  0
  7  8  1  0
  8 29  1  0
  8 30  1  0
  8 31  1  0
  9 10  1  0
  9 23  1  0
 10 22  1  0
 10 32  1  1
 10 11  1  0
 11 12  2  0
 11 16  1  0
 12 13  1  0
 12 14  1  0
 14 15  1  0
 14 34  1  0
 14 35  1  0
 15 36  1  0
 15 16  2  0
 16 17  1  0
 17 18  1  0
 17 33  1  0
 18 22  1  0
 18 19  2  0
 19 20  1  0
 20 21  2  0
 20 37  1  0
 21 22  1  0
 23 38  1  0
M  CHG  1  13  -1
M  END
>  <i_m_ct_stereo_status>  (228) 
1

>  <s_m_source_file>  (228) 
/var/tmp/pbs.5076255.sched01/tmppxy1xzy0/80exjuxwr6.sdf

>  <i_m_source_file_index>  (228) 
25

>  <i_lp_mmshare_version>  (228) 
48012

>  <i_f3d_flags>  (228) 
0

>  <s_epik_input>  (228) 
W0NIM11PYzFbY0hdW2NIXWMoT1tDSDNdKWMoW2NIXTEpW0NASF0ybihuW2NIXW4zKWMzTj1DKFtDQEBIXTI0KVtDSDJdW0NIMl1DND1P

>  <s_epik_cmdline>  (228) 
J2VwaWtfcHl0aG9uJywgJy1waHQnLCAnMi4wJywgJy1waCcsICc3LjAnLCAnLXRuJywgJzgnLCAnLW1hJywgJzIwMCcsICctaW1hZScsICc8aW5maWxlLm1hZT4nLCAnLW9tYWUnLCAnPG91dGZpbGUubWFlPic=

>  <r_lp_tautomer_probability>  (228) 
1

>  <r_epik_Ionization_Penalty>  (228) 
0.439215

>  <r_epik_Ionization_Penalty_Charging>  (228) 
0.439214

>  <r_epik_Ionization_Penalty_Neutral>  (228) 
3.08097e-07

>  <r_epik_State_Penalty>  (228) 
0.441175

>  <r_epik_Charging_Adjusted_Penalty>  (228) 
0.88039

>  <i_epik_Tot_Q>  (228) 
-1

>  <i_epik_Tot_abs_Q>  (228) 
1

>  <s_epik_Chemistry_Notes>  (228) 
This compound has an imine and may undergo hydrolysis.

>  <s_lp_Force_Field>  (228) 
OPLS3e

>  <r_lp_Energy>  (228) 
29.1353

>  <b_lp_Chiralities_Consistent>  (228) 
1

>  <s_lp_Variant>  (228) 
74:0-2

>  <s_i_glide_gridfile>  (228) 
pfpi4k_grid

>  <i_i_glide_lignum>  (228) 
25

>  <i_i_glide_rotatable_bonds>  (228) 
3

>  <r_i_docking_score>  (228) 
-2.74759

>  <r_i_glide_ligand_efficiency>  (228) 
-0.11946

>  <r_i_glide_ligand_efficiency_sa>  (228) 
-0.339729

>  <r_i_glide_ligand_efficiency_ln>  (228) 
-0.664392

>  <r_i_glide_gscore>  (228) 
-2.74759

>  <r_i_glide_lipo>  (228) 
0

>  <r_i_glide_hbond>  (228) 
-0.136017

>  <r_i_glide_metal>  (228) 
-0

>  <r_i_glide_rewards>  (228) 
-1.28649

>  <r_i_glide_evdw>  (228) 
-16.8563

>  <r_i_glide_ecoul>  (228) 
-3.48868

>  <r_i_glide_erotb>  (228) 
0.191333

>  <r_i_glide_esite>  (228) 
-0.1503

>  <r_i_glide_emodel>  (228) 
-26.5354

>  <r_i_glide_energy>  (228) 
-20.345

>  <r_i_glide_einternal>  (228) 
0.447638

>  <r_i_glide_intrahb_reward>  (228) 
-0

>  <i_i_glide_confnum>  (228) 
2

>  <i_i_glide_posenum>  (228) 
8

>  <r_i_glide_eff_state_penalty>  (228) 
0

>  <ligand_id>  (228) 
74

>  <original_smiles>  (228) 
COc1ccc(OC)c(C2C3C(=O)CCC3=Nc3ncnn32)c1

>  <smiles>  (228) 
[H]C1=C2C(=C([O-])C1([H])[H])C([H])(c1c([H])c(OC([H])([H])[H])c([H])c([H])c1OC([H])([H])[H])n1nc([H])nc1N2[H]

$$$$
74:1:2
     RDKit          3D

 38 41  0  0  1  0  0  0  0  0999 V2000
   -1.9817    2.8180    2.9578 C   0  0  0  0  0  0  0  0  0  0  0  0
   -2.5516    3.1644    4.2147 O   0  0  0  0  0  0  0  0  0  0  0  0
   -1.9929    2.6262    5.3536 C   0  0  0  0  0  0  0  0  0  0  0  0
   -2.5524    3.0166    6.5821 C   0  0  0  0  0  0  0  0  0  0  0  0
   -2.0450    2.5282    7.7993 C   0  0  0  0  0  0  0  0  0  0  0  0
   -0.9536    1.6223    7.8158 C   0  0  0  0  0  0  0  0  0  0  0  0
   -0.4277    1.1090    8.9850 O   0  0  0  0  0  0  0  0  0  0  0  0
   -0.7404    1.7520   10.2191 C   0  0  0  0  0  0  0  0  0  0  0  0
   -0.3876    1.2142    6.5797 C   0  0  0  0  0  0  0  0  0  0  0  0
    0.8082    0.2577    6.5262 C   0  0  2  0  0  0  0  0  0  0  0  0
    1.8918    0.7356    5.5719 C   0  0  0  0  0  0  0  0  0  0  0  0
    2.7416    1.8157    5.6746 C   0  0  0  0  0  0  0  0  0  0  0  0
    2.9467    2.7502    6.4828 O   0  0  0  0  0  0  0  0  0  0  0  0
    3.6702    1.8658    4.4678 C   0  0  0  0  0  0  0  0  0  0  0  0
    3.2026    0.6403    3.7176 C   0  0  0  0  0  0  0  0  0  0  0  0
    2.2182    0.0212    4.3676 C   0  0  0  0  0  0  0  0  0  0  0  0
    1.5686   -1.1533    4.0464 N   0  0  0  0  0  0  0  0  0  0  0  0
    0.6972   -1.7365    4.9626 C   0  0  0  0  0  0  0  0  0  0  0  0
    0.1564   -2.9410    4.8759 N   0  0  0  0  0  0  0  0  0  0  0  0
   -0.4808   -2.9834    6.0877 C   0  0  0  0  0  0  0  0  0  0  0  0
   -0.3780   -1.8961    6.8549 N   0  0  0  0  0  0  0  0  0  0  0  0
    0.3903   -1.0783    6.0963 N   0  0  0  0  0  0  0  0  0  0  0  0
   -0.9072    1.7189    5.3636 C   0  0  0  0  0  0  0  0  0  0  0  0
   -2.5404    3.3158    2.1650 H   0  0  0  0  0  0  0  0  0  0  0  0
   -2.0344    1.7449    2.7705 H   0  0  0  0  0  0  0  0  0  0  0  0
   -0.9433    3.1450    2.8847 H   0  0  0  0  0  0  0  0  0  0  0  0
   -3.3822    3.7036    6.5889 H   0  0  0  0  0  0  0  0  0  0  0  0
   -2.5164    2.8655    8.7106 H   0  0  0  0  0  0  0  0  0  0  0  0
   -0.2431    1.2219   11.0302 H   0  0  0  0  0  0  0  0  0  0  0  0
   -1.8050    1.7420   10.4472 H   0  0  0  0  0  0  0  0  0  0  0  0
   -0.3834    2.7826   10.2346 H   0  0  0  0  0  0  0  0  0  0  0  0
    1.2769    0.1626    7.5042 H   0  0  0  0  0  0  0  0  0  0  0  0
    1.8445   -1.6837    3.2311 H   0  0  0  0  0  0  0  0  0  0  0  0
    4.7177    1.7677    4.7550 H   0  0  0  0  0  0  0  0  0  0  0  0
    3.5174    2.7660    3.8722 H   0  0  0  0  0  0  0  0  0  0  0  0
    3.6501    0.3260    2.7910 H   0  0  0  0  0  0  0  0  0  0  0  0
   -1.0499   -3.8415    6.4128 H   0  0  0  0  0  0  0  0  0  0  0  0
   -0.4391    1.4073    4.4410 H   0  0  0  0  0  0  0  0  0  0  0  0
  1  2  1  0
  1 24  1  0
  1 25  1  0
  1 26  1  0
  2  3  1  0
  3 23  2  0
  3  4  1  0
  4  5  2  0
  4 27  1  0
  5  6  1  0
  5 28  1  0
  6  7  1  0
  6  9  2  0
  7  8  1  0
  8 29  1  0
  8 30  1  0
  8 31  1  0
  9 10  1  0
  9 23  1  0
 10 22  1  0
 10 32  1  1
 10 11  1  0
 11 12  2  0
 11 16  1  0
 12 13  1  0
 12 14  1  0
 14 15  1  0
 14 34  1  0
 14 35  1  0
 15 36  1  0
 15 16  2  0
 16 17  1  0
 17 18  1  0
 17 33  1  0
 18 22  1  0
 18 19  2  0
 19 20  1  0
 20 21  2  0
 20 37  1  0
 21 22  1  0
 23 38  1  0
M  CHG  1  13  -1
M  END
>  <i_m_ct_stereo_status>  (229) 
1

>  <s_m_source_file>  (229) 
/var/tmp/pbs.5076255.sched01/tmppxy1xzy0/80exjuxwr6.sdf

>  <i_m_source_file_index>  (229) 
25

>  <i_lp_mmshare_version>  (229) 
48012

>  <i_f3d_flags>  (229) 
0

>  <s_epik_input>  (229) 
W0NIM11PYzFbY0hdW2NIXWMoT1tDSDNdKWMoW2NIXTEpW0NASF0ybihuW2NIXW4zKWMzTj1DKFtDQEBIXTI0KVtDSDJdW0NIMl1DND1P

>  <s_epik_cmdline>  (229) 
J2VwaWtfcHl0aG9uJywgJy1waHQnLCAnMi4wJywgJy1waCcsICc3LjAnLCAnLXRuJywgJzgnLCAnLW1hJywgJzIwMCcsICctaW1hZScsICc8aW5maWxlLm1hZT4nLCAnLW9tYWUnLCAnPG91dGZpbGUubWFlPic=

>  <r_lp_tautomer_probability>  (229) 
1

>  <r_epik_Ionization_Penalty>  (229) 
0.439215

>  <r_epik_Ionization_Penalty_Charging>  (229) 
0.439214

>  <r_epik_Ionization_Penalty_Neutral>  (229) 
3.08097e-07

>  <r_epik_State_Penalty>  (229) 
0.441175

>  <r_epik_Charging_Adjusted_Penalty>  (229) 
0.88039

>  <i_epik_Tot_Q>  (229) 
-1

>  <i_epik_Tot_abs_Q>  (229) 
1

>  <s_epik_Chemistry_Notes>  (229) 
This compound has an imine and may undergo hydrolysis.

>  <s_lp_Force_Field>  (229) 
OPLS3e

>  <r_lp_Energy>  (229) 
29.1353

>  <b_lp_Chiralities_Consistent>  (229) 
1

>  <s_lp_Variant>  (229) 
74:0-2

>  <s_i_glide_gridfile>  (229) 
pfpi4k_grid

>  <i_i_glide_lignum>  (229) 
25

>  <i_i_glide_rotatable_bonds>  (229) 
3

>  <r_i_docking_score>  (229) 
-2.48584

>  <r_i_glide_ligand_efficiency>  (229) 
-0.10808

>  <r_i_glide_ligand_efficiency_sa>  (229) 
-0.307365

>  <r_i_glide_ligand_efficiency_ln>  (229) 
-0.601098

>  <r_i_glide_gscore>  (229) 
-2.48584

>  <r_i_glide_lipo>  (229) 
-0.184698

>  <r_i_glide_hbond>  (229) 
0

>  <r_i_glide_metal>  (229) 
-0

>  <r_i_glide_rewards>  (229) 
-1.28649

>  <r_i_glide_evdw>  (229) 
-18.3568

>  <r_i_glide_ecoul>  (229) 
-1.6157

>  <r_i_glide_erotb>  (229) 
0.191333

>  <r_i_glide_esite>  (229) 
-0.0457901

>  <r_i_glide_emodel>  (229) 
-25.3749

>  <r_i_glide_energy>  (229) 
-19.9725

>  <r_i_glide_einternal>  (229) 
0.588882

>  <r_i_glide_intrahb_reward>  (229) 
-0

>  <i_i_glide_confnum>  (229) 
3

>  <i_i_glide_posenum>  (229) 
5

>  <r_i_glide_eff_state_penalty>  (229) 
0

>  <ligand_id>  (229) 
74

>  <original_smiles>  (229) 
COc1ccc(OC)c(C2C3C(=O)CCC3=Nc3ncnn32)c1

>  <smiles>  (229) 
[H]C1=C2C(=C([O-])C1([H])[H])C([H])(c1c([H])c(OC([H])([H])[H])c([H])c([H])c1OC([H])([H])[H])n1nc([H])nc1N2[H]

$$$$
75:0:0
     RDKit          3D

 83 91  0  0  1  0  0  0  0  0999 V2000
    3.3486   -2.2792   -1.5696 C   0  0  0  0  0  0  0  0  0  0  0  0
    3.6462   -3.1954   -0.3985 C   0  0  0  0  0  0  0  0  0  0  0  0
    4.5591   -4.1692   -0.4563 C   0  0  0  0  0  0  0  0  0  0  0  0
    4.9278   -5.0808    0.7065 C   0  0  0  0  0  0  0  0  0  0  0  0
    4.3554   -4.6021    2.0516 C   0  0  1  0  0  0  0  0  0  0  0  0
    2.8442   -4.1366    1.8305 C   0  0  2  0  0  0  0  0  0  0  0  0
    2.0791   -5.1680    1.2153 O   0  0  0  0  0  0  0  0  0  0  0  0
    2.8438   -2.9302    0.8655 C   0  0  0  0  0  0  0  0  0  0  0  0
    2.2374   -3.7092    3.0469 O   0  0  0  0  0  0  0  0  0  0  0  0
    1.9489   -4.7650    3.9789 C   0  0  2  0  0  0  0  0  0  0  0  0
    2.8800   -4.9461    5.0169 O   0  0  0  0  0  0  0  0  0  0  0  0
    3.1687   -5.6983    3.8660 C   0  0  1  0  0  0  0  0  0  0  0  0
    2.7498   -7.1289    3.6581 C   0  0  1  0  0  0  0  0  0  0  0  0
    3.3262   -7.9606    2.4405 C   0  0  0  0  0  0  0  0  0  0  0  0
    4.7512   -8.5933    2.3678 C   0  0  0  0  0  0  0  0  0  0  0  0
    4.7391   -9.9267    3.1589 C   0  0  0  0  0  0  0  0  0  0  0  0
    5.0024   -9.0428    0.9082 C   0  0  0  0  0  0  0  0  0  0  0  0
    5.8968   -7.6311    2.8428 C   0  0  1  0  0  0  0  0  0  0  0  0
    6.6886   -7.0764    1.8149 O   0  0  0  0  0  0  0  0  0  0  0  0
    5.4035   -6.6289    3.8685 C   0  0  2  0  0  0  0  0  0  0  0  0
    5.9896   -6.4996    5.2023 O   0  0  0  0  0  0  0  0  0  0  0  0
    5.0307   -7.5219    5.1124 C   0  0  1  0  0  0  0  0  0  0  0  0
    3.7231   -7.4882    5.9211 C   0  0  0  0  0  0  0  0  0  0  0  0
    2.4496   -7.7340    5.0318 C   0  0  1  0  0  0  0  0  0  0  0  0
    0.9802   -7.3473    5.6042 C   0  0  1  0  0  0  0  0  0  0  0  0
    0.3199   -8.6823    6.0357 C   0  0  0  0  0  0  0  0  0  0  0  0
    0.8180   -8.9479    7.4889 C   0  0  1  0  0  0  0  0  0  0  0  0
    1.9077   -9.8586    7.4980 O   0  0  0  0  0  0  0  0  0  0  0  0
    1.2702   -7.5754    8.0571 C   0  0  0  0  0  0  0  0  0  0  0  0
    0.8353   -6.6128    6.9656 C   0  0  1  0  0  0  0  0  0  0  0  0
    1.2061   -5.2318    7.0217 O   0  0  0  0  0  0  0  0  0  0  0  0
    0.5101   -4.3598    6.0970 C   0  0  0  0  0  0  0  0  0  0  0  0
   -0.9407   -4.1101    6.5789 C   0  0  0  0  0  0  0  0  0  0  0  0
    1.1643   -2.9589    6.2116 C   0  0  0  0  0  0  0  0  0  0  0  0
    0.5574   -4.9653    4.6387 C   0  0  2  0  0  0  0  0  0  0  0  0
    0.0534   -6.4506    4.7063 C   0  0  1  0  0  0  0  0  0  0  0  0
   -0.4000   -6.9793    3.4724 O   0  0  0  0  0  0  0  0  0  0  0  0
    4.5558   -5.3496    3.4610 C   0  0  1  0  0  0  0  0  0  0  0  0
    5.1625   -4.1791    4.3171 C   0  0  0  0  0  0  0  0  0  0  0  0
    3.5076   -1.2389   -1.2911 H   0  0  0  0  0  0  0  0  0  0  0  0
    2.3107   -2.3807   -1.8845 H   0  0  0  0  0  0  0  0  0  0  0  0
    3.9771   -2.5210   -2.4215 H   0  0  0  0  0  0  0  0  0  0  0  0
    5.1073   -4.3384   -1.3729 H   0  0  0  0  0  0  0  0  0  0  0  0
    4.6122   -6.0814    0.4381 H   0  0  0  0  0  0  0  0  0  0  0  0
    6.0091   -5.0162    0.7374 H   0  0  0  0  0  0  0  0  0  0  0  0
    4.8810   -3.6455    2.1429 H   0  0  0  0  0  0  0  0  0  0  0  0
    2.4952   -5.3733    0.3951 H   0  0  0  0  0  0  0  0  0  0  0  0
    3.2154   -2.0464    1.3860 H   0  0  0  0  0  0  0  0  0  0  0  0
    1.8167   -2.7092    0.5933 H   0  0  0  0  0  0  0  0  0  0  0  0
    1.8239   -7.0128    3.1582 H   0  0  0  0  0  0  0  0  0  0  0  0
    2.6197   -8.7721    2.2671 H   0  0  0  0  0  0  0  0  0  0  0  0
    3.2060   -7.3550    1.5477 H   0  0  0  0  0  0  0  0  0  0  0  0
    5.7389  -10.3547    3.2376 H   0  0  0  0  0  0  0  0  0  0  0  0
    4.1179  -10.6760    2.6630 H   0  0  0  0  0  0  0  0  0  0  0  0
    4.3322   -9.8403    4.1625 H   0  0  0  0  0  0  0  0  0  0  0  0
    5.9598   -9.5594    0.8168 H   0  0  0  0  0  0  0  0  0  0  0  0
    5.0081   -8.2162    0.1992 H   0  0  0  0  0  0  0  0  0  0  0  0
    4.2306   -9.7352    0.5652 H   0  0  0  0  0  0  0  0  0  0  0  0
    6.6346   -8.2469    3.3515 H   0  0  0  0  0  0  0  0  0  0  0  0
    6.1567   -6.4761    1.3210 H   0  0  0  0  0  0  0  0  0  0  0  0
    5.5461   -8.4635    5.2498 H   0  0  0  0  0  0  0  0  0  0  0  0
    3.7985   -8.2977    6.6492 H   0  0  0  0  0  0  0  0  0  0  0  0
    3.6846   -6.5691    6.5048 H   0  0  0  0  0  0  0  0  0  0  0  0
    2.4271   -8.8035    4.8376 H   0  0  0  0  0  0  0  0  0  0  0  0
   -0.7652   -8.5858    6.0449 H   0  0  0  0  0  0  0  0  0  0  0  0
    0.4861   -9.5260    5.3659 H   0  0  0  0  0  0  0  0  0  0  0  0
    0.0129   -9.3698    8.1059 H   0  0  0  0  0  0  0  0  0  0  0  0
    1.5947  -10.7797    7.4957 H   0  0  0  0  0  0  0  0  0  0  0  0
    0.8039   -7.3392    9.0170 H   0  0  0  0  0  0  0  0  0  0  0  0
    2.3426   -7.5359    8.2200 H   0  0  0  0  0  0  0  0  0  0  0  0
   -0.2296   -6.5823    7.1783 H   0  0  0  0  0  0  0  0  0  0  0  0
   -1.4060   -3.3529    5.9486 H   0  0  0  0  0  0  0  0  0  0  0  0
   -0.9796   -3.7181    7.5951 H   0  0  0  0  0  0  0  0  0  0  0  0
   -1.5923   -4.9814    6.5637 H   0  0  0  0  0  0  0  0  0  0  0  0
    0.7864   -2.2665    5.4558 H   0  0  0  0  0  0  0  0  0  0  0  0
    2.2452   -2.9854    6.1169 H   0  0  0  0  0  0  0  0  0  0  0  0
    0.9695   -2.5177    7.1906 H   0  0  0  0  0  0  0  0  0  0  0  0
   -0.1349   -4.3872    4.0395 H   0  0  0  0  0  0  0  0  0  0  0  0
   -0.9123   -6.4118    5.1941 H   0  0  0  0  0  0  0  0  0  0  0  0
   -0.6356   -7.8861    3.6079 H   0  0  0  0  0  0  0  0  0  0  0  0
    5.2153   -4.3505    5.3965 H   0  0  0  0  0  0  0  0  0  0  0  0
    4.5963   -3.2486    4.2140 H   0  0  0  0  0  0  0  0  0  0  0  0
    6.1739   -3.9744    3.9804 H   0  0  0  0  0  0  0  0  0  0  0  0
  1  2  1  0
  1 40  1  0
  1 41  1  0
  1 42  1  0
  2  8  1  0
  2  3  2  0
  3  4  1  0
  3 43  1  0
  4  5  1  0
  4 44  1  0
  4 45  1  0
  5 38  1  0
  5  6  1  0
  5 46  1  1
  6  7  1  6
  6  8  1  0
  6  9  1  0
  7 47  1  0
  8 48  1  0
  8 49  1  0
 10  9  1  6
 10 12  1  0
 10 35  1  0
 10 11  1  0
 12 11  1  1
 12 38  1  0
 12 13  1  0
 13 24  1  0
 13 14  1  0
 13 50  1  6
 14 15  1  0
 14 51  1  0
 14 52  1  0
 15 16  1  0
 15 17  1  0
 15 18  1  0
 16 53  1  0
 16 54  1  0
 16 55  1  0
 17 56  1  0
 17 57  1  0
 17 58  1  0
 18 19  1  0
 18 20  1  0
 18 59  1  1
 19 60  1  0
 20 22  1  0
 20 21  1  1
 20 38  1  0
 21 22  1  0
 22 23  1  0
 22 61  1  6
 23 24  1  0
 23 62  1  0
 23 63  1  0
 24 25  1  0
 24 64  1  6
 25 30  1  0
 25 36  1  0
 25 26  1  1
 26 27  1  0
 26 65  1  0
 26 66  1  0
 27 28  1  0
 27 29  1  0
 27 67  1  1
 28 68  1  0
 29 30  1  0
 29 69  1  0
 29 70  1  0
 30 31  1  0
 30 71  1  1
 31 32  1  0
 32 33  1  0
 32 34  1  0
 32 35  1  0
 33 72  1  0
 33 73  1  0
 33 74  1  0
 34 75  1  0
 34 76  1  0
 34 77  1  0
 35 36  1  0
 35 78  1  6
 36 37  1  0
 36 79  1  1
 37 80  1  0
 38 39  1  1
 39 81  1  0
 39 82  1  0
 39 83  1  0
M  END
>  <i_m_ct_stereo_status>  (230) 
1

>  <s_m_source_file>  (230) 
/var/tmp/pbs.5076255.sched01/tmppxy1xzy0/80exjuxwr6.sdf

>  <i_m_source_file_index>  (230) 
26

>  <i_lp_mmshare_version>  (230) 
48012

>  <i_f3d_flags>  (230) 
0

>  <s_epik_input>  (230) 
W0NIMl0xW0NIXT1DKFtDSDNdKVtDSDJdW0NAQF0oTzIpKFtPSF0pW0NASF0xW0NAXTMoW0NIM10pW0NAXShPNCkoW0NASF0oW09IXSlDKFtDSDJdNSkoW0NIM10pW0NIM10pW0NAQEhdNFtDSDJdW0NASF0oW0NASF01W0NAQF0zKFtDQF0yNjcpTzYpW0NAXTg5W0NAQEhdKFtDSDJdW0NAQEhdKFtDSDJdOClbT0hdKU9DKFtDSDNdKShbQ0gzXSlbQ0BASF03W0NASF05W09IXQ==

>  <s_epik_cmdline>  (230) 
J2VwaWtfcHl0aG9uJywgJy1waHQnLCAnMi4wJywgJy1waCcsICc3LjAnLCAnLXRuJywgJzgnLCAnLW1hJywgJzIwMCcsICctaW1hZScsICc8aW5maWxlLm1hZT4nLCAnLW9tYWUnLCAnPG91dGZpbGUubWFlPic=

>  <r_lp_tautomer_probability>  (230) 
1

>  <r_epik_Ionization_Penalty>  (230) 
1.99548e-06

>  <r_epik_Ionization_Penalty_Charging>  (230) 
0

>  <r_epik_Ionization_Penalty_Neutral>  (230) 
1.99548e-06

>  <r_epik_State_Penalty>  (230) 
-0

>  <r_epik_Charging_Adjusted_Penalty>  (230) 
0

>  <i_epik_Tot_Q>  (230) 
0

>  <i_epik_Tot_abs_Q>  (230) 
0

>  <s_lp_Force_Field>  (230) 
OPLS3e

>  <r_lp_Energy>  (230) 
189.807

>  <b_lp_Chiralities_Consistent>  (230) 
1

>  <s_lp_Variant>  (230) 
75:0-1

>  <s_i_glide_gridfile>  (230) 
pfpi4k_grid

>  <i_i_glide_lignum>  (230) 
26

>  <i_i_glide_rotatable_bonds>  (230) 
4

>  <r_i_docking_score>  (230) 
-2.76675

>  <r_i_glide_ligand_efficiency>  (230) 
-0.0709424

>  <r_i_glide_ligand_efficiency_sa>  (230) 
-0.240581

>  <r_i_glide_ligand_efficiency_ln>  (230) 
-0.593271

>  <r_i_glide_gscore>  (230) 
-2.76675

>  <r_i_glide_lipo>  (230) 
-0.113243

>  <r_i_glide_hbond>  (230) 
-0.195104

>  <r_i_glide_metal>  (230) 
-0

>  <r_i_glide_rewards>  (230) 
0

>  <r_i_glide_evdw>  (230) 
-25.9066

>  <r_i_glide_ecoul>  (230) 
-7.70659

>  <r_i_glide_erotb>  (230) 
0

>  <r_i_glide_esite>  (230) 
-0.00709039

>  <r_i_glide_emodel>  (230) 
-38.2534

>  <r_i_glide_energy>  (230) 
-33.6132

>  <r_i_glide_einternal>  (230) 
2.86906

>  <r_i_glide_intrahb_reward>  (230) 
-0

>  <i_i_glide_confnum>  (230) 
1

>  <i_i_glide_posenum>  (230) 
7

>  <r_i_glide_eff_state_penalty>  (230) 
0

>  <ligand_id>  (230) 
75

>  <original_smiles>  (230) 
CC1=CCC2C(O)(C1)OC13OC14C1CC(C)(C)C(O)C5(OC5CC1C15CC(O)CC1OC(C)(C)C3C5O)C24C

>  <smiles>  (230) 
[H]OC1([H])C([H])([H])C2([H])OC(C([H])([H])[H])(C([H])([H])[H])C3([H])C([H])(O[H])C2(C1([H])[H])C1([H])C([H])([H])C2([H])OC24C([H])(O[H])C(C([H])([H])[H])(C([H])([H])[H])C([H])([H])C1([H])C12OC31OC1(O[H])C([H])([H])C(C([H])([H])[H])=C([H])C([H])([H])C1([H])C42C([H])([H])[H]

$$$$
75:0:1
     RDKit          3D

 83 91  0  0  1  0  0  0  0  0999 V2000
    3.4124   -2.1861   -1.5016 C   0  0  0  0  0  0  0  0  0  0  0  0
    3.6830   -3.1108   -0.3323 C   0  0  0  0  0  0  0  0  0  0  0  0
    4.6065   -4.0908   -0.3904 C   0  0  0  0  0  0  0  0  0  0  0  0
    4.9567   -5.0145    0.7651 C   0  0  0  0  0  0  0  0  0  0  0  0
    4.3561   -4.5530    2.1100 C   0  0  1  0  0  0  0  0  0  0  0  0
    2.8459   -4.0839    1.8699 C   0  0  2  0  0  0  0  0  0  0  0  0
    2.0771   -5.1021    1.2411 O   0  0  0  0  0  0  0  0  0  0  0  0
    2.8519   -2.8674    0.9176 C   0  0  0  0  0  0  0  0  0  0  0  0
    2.2398   -3.6662    3.0946 O   0  0  0  0  0  0  0  0  0  0  0  0
    1.9569   -4.7235    4.0204 C   0  0  2  0  0  0  0  0  0  0  0  0
    2.8664   -4.9436    5.0734 O   0  0  0  0  0  0  0  0  0  0  0  0
    3.1647   -5.6634    3.9120 C   0  0  1  0  0  0  0  0  0  0  0  0
    2.7456   -7.0916    3.6634 C   0  0  1  0  0  0  0  0  0  0  0  0
    3.3399   -7.9163    2.4481 C   0  0  0  0  0  0  0  0  0  0  0  0
    4.7705   -8.5450    2.3860 C   0  0  0  0  0  0  0  0  0  0  0  0
    4.7545   -9.8861    3.1638 C   0  0  0  0  0  0  0  0  0  0  0  0
    5.0349   -8.9780    0.9229 C   0  0  0  0  0  0  0  0  0  0  0  0
    5.9070   -7.5783    2.8839 C   0  0  1  0  0  0  0  0  0  0  0  0
    6.7187   -7.0046    1.8896 O   0  0  0  0  0  0  0  0  0  0  0  0
    5.4050   -6.5875    3.9234 C   0  0  2  0  0  0  0  0  0  0  0  0
    5.9813   -6.4778    5.2533 O   0  0  0  0  0  0  0  0  0  0  0  0
    5.0259   -7.4973    5.1491 C   0  0  1  0  0  0  0  0  0  0  0  0
    3.7007   -7.4797    5.9352 C   0  0  0  0  0  0  0  0  0  0  0  0
    2.4315   -7.7164    5.0289 C   0  0  1  0  0  0  0  0  0  0  0  0
    0.9514   -7.3380    5.5914 C   0  0  1  0  0  0  0  0  0  0  0  0
    0.2878   -8.6747    6.0144 C   0  0  0  0  0  0  0  0  0  0  0  0
    0.7759   -8.9569    7.4616 C   0  0  1  0  0  0  0  0  0  0  0  0
    1.8703   -9.8438    7.4675 O   0  0  0  0  0  0  0  0  0  0  0  0
    1.2177   -7.5953    8.0454 C   0  0  0  0  0  0  0  0  0  0  0  0
    0.7909   -6.6179    6.9596 C   0  0  1  0  0  0  0  0  0  0  0  0
    1.1653   -5.2358    7.0287 O   0  0  0  0  0  0  0  0  0  0  0  0
    0.4794   -4.3470    6.1082 C   0  0  0  0  0  0  0  0  0  0  0  0
   -0.9793   -4.1103    6.5755 C   0  0  0  0  0  0  0  0  0  0  0  0
    1.1332   -2.9497    6.2480 C   0  0  0  0  0  0  0  0  0  0  0  0
    0.5474   -4.9326    4.6430 C   0  0  2  0  0  0  0  0  0  0  0  0
    0.0435   -6.4235    4.6842 C   0  0  1  0  0  0  0  0  0  0  0  0
   -0.3941   -6.9481    3.4407 O   0  0  0  0  0  0  0  0  0  0  0  0
    4.5597   -5.2987    3.5178 C   0  0  1  0  0  0  0  0  0  0  0  0
    5.1545   -4.1329    4.3886 C   0  0  0  0  0  0  0  0  0  0  0  0
    3.5669   -1.1469   -1.2119 H   0  0  0  0  0  0  0  0  0  0  0  0
    2.3776   -2.2888   -1.8304 H   0  0  0  0  0  0  0  0  0  0  0  0
    4.0488   -2.4210   -2.3499 H   0  0  0  0  0  0  0  0  0  0  0  0
    5.1616   -4.2394   -1.3044 H   0  0  0  0  0  0  0  0  0  0  0  0
    4.6541   -6.0159    0.4877 H   0  0  0  0  0  0  0  0  0  0  0  0
    6.0399   -4.9667    0.8203 H   0  0  0  0  0  0  0  0  0  0  0  0
    4.8838   -3.5971    2.2040 H   0  0  0  0  0  0  0  0  0  0  0  0
    2.3695   -5.9395    1.5788 H   0  0  0  0  0  0  0  0  0  0  0  0
    3.2209   -1.9903    1.4514 H   0  0  0  0  0  0  0  0  0  0  0  0
    1.8212   -2.6550    0.6370 H   0  0  0  0  0  0  0  0  0  0  0  0
    1.8220   -6.9778    3.1537 H   0  0  0  0  0  0  0  0  0  0  0  0
    2.6394   -8.7287    2.2557 H   0  0  0  0  0  0  0  0  0  0  0  0
    3.2415   -7.3049    1.5567 H   0  0  0  0  0  0  0  0  0  0  0  0
    5.7550  -10.3141    3.2499 H   0  0  0  0  0  0  0  0  0  0  0  0
    4.1395  -10.6321    2.6543 H   0  0  0  0  0  0  0  0  0  0  0  0
    4.3335   -9.8107    4.1638 H   0  0  0  0  0  0  0  0  0  0  0  0
    5.9960   -9.4875    0.8284 H   0  0  0  0  0  0  0  0  0  0  0  0
    5.0221   -8.1395    0.2288 H   0  0  0  0  0  0  0  0  0  0  0  0
    4.2704   -9.6718    0.5654 H   0  0  0  0  0  0  0  0  0  0  0  0
    6.6396   -8.1963    3.3980 H   0  0  0  0  0  0  0  0  0  0  0  0
    7.4438   -7.5912    1.7142 H   0  0  0  0  0  0  0  0  0  0  0  0
    5.5319   -8.4468    5.2823 H   0  0  0  0  0  0  0  0  0  0  0  0
    3.7658   -8.2939    6.6576 H   0  0  0  0  0  0  0  0  0  0  0  0
    3.6488   -6.5687    6.5344 H   0  0  0  0  0  0  0  0  0  0  0  0
    2.4167   -8.7841    4.8223 H   0  0  0  0  0  0  0  0  0  0  0  0
   -0.7961   -8.5699    6.0298 H   0  0  0  0  0  0  0  0  0  0  0  0
    0.4540   -9.5063    5.3273 H   0  0  0  0  0  0  0  0  0  0  0  0
   -0.0259   -9.3827    8.0606 H   0  0  0  0  0  0  0  0  0  0  0  0
    1.5682  -10.7691    7.4675 H   0  0  0  0  0  0  0  0  0  0  0  0
    0.7338   -7.3626    8.9945 H   0  0  0  0  0  0  0  0  0  0  0  0
    2.2904   -7.5395    8.2192 H   0  0  0  0  0  0  0  0  0  0  0  0
   -0.2789   -6.5744    7.1661 H   0  0  0  0  0  0  0  0  0  0  0  0
   -1.4439   -3.3516    5.9458 H   0  0  0  0  0  0  0  0  0  0  0  0
   -1.0306   -3.7301    7.5946 H   0  0  0  0  0  0  0  0  0  0  0  0
   -1.6280   -4.9862    6.5438 H   0  0  0  0  0  0  0  0  0  0  0  0
    0.7624   -2.2542    5.4922 H   0  0  0  0  0  0  0  0  0  0  0  0
    2.2175   -2.9790    6.1661 H   0  0  0  0  0  0  0  0  0  0  0  0
    0.9226   -2.5215    7.2272 H   0  0  0  0  0  0  0  0  0  0  0  0
   -0.1406   -4.3505    4.0344 H   0  0  0  0  0  0  0  0  0  0  0  0
   -0.9309   -6.3972    5.1556 H   0  0  0  0  0  0  0  0  0  0  0  0
   -0.6401   -7.8531    3.5675 H   0  0  0  0  0  0  0  0  0  0  0  0
    5.1933   -4.3243    5.4636 H   0  0  0  0  0  0  0  0  0  0  0  0
    4.5816   -3.2065    4.2868 H   0  0  0  0  0  0  0  0  0  0  0  0
    6.1722   -3.9243    4.0614 H   0  0  0  0  0  0  0  0  0  0  0  0
  1  2  1  0
  1 40  1  0
  1 41  1  0
  1 42  1  0
  2  8  1  0
  2  3  2  0
  3  4  1  0
  3 43  1  0
  4  5  1  0
  4 44  1  0
  4 45  1  0
  5 38  1  0
  5  6  1  0
  5 46  1  1
  6  7  1  6
  6  8  1  0
  6  9  1  0
  7 47  1  0
  8 48  1  0
  8 49  1  0
 10  9  1  6
 10 12  1  0
 10 35  1  0
 10 11  1  0
 12 11  1  1
 12 38  1  0
 12 13  1  0
 13 24  1  0
 13 14  1  0
 13 50  1  6
 14 15  1  0
 14 51  1  0
 14 52  1  0
 15 16  1  0
 15 17  1  0
 15 18  1  0
 16 53  1  0
 16 54  1  0
 16 55  1  0
 17 56  1  0
 17 57  1  0
 17 58  1  0
 18 19  1  0
 18 20  1  0
 18 59  1  1
 19 60  1  0
 20 22  1  0
 20 21  1  1
 20 38  1  0
 21 22  1  0
 22 23  1  0
 22 61  1  6
 23 24  1  0
 23 62  1  0
 23 63  1  0
 24 25  1  0
 24 64  1  6
 25 30  1  0
 25 36  1  0
 25 26  1  1
 26 27  1  0
 26 65  1  0
 26 66  1  0
 27 28  1  0
 27 29  1  0
 27 67  1  1
 28 68  1  0
 29 30  1  0
 29 69  1  0
 29 70  1  0
 30 31  1  0
 30 71  1  1
 31 32  1  0
 32 33  1  0
 32 34  1  0
 32 35  1  0
 33 72  1  0
 33 73  1  0
 33 74  1  0
 34 75  1  0
 34 76  1  0
 34 77  1  0
 35 36  1  0
 35 78  1  6
 36 37  1  0
 36 79  1  1
 37 80  1  0
 38 39  1  1
 39 81  1  0
 39 82  1  0
 39 83  1  0
M  END
>  <i_m_ct_stereo_status>  (231) 
1

>  <s_m_source_file>  (231) 
/var/tmp/pbs.5076255.sched01/tmppxy1xzy0/80exjuxwr6.sdf

>  <i_m_source_file_index>  (231) 
26

>  <i_lp_mmshare_version>  (231) 
48012

>  <i_f3d_flags>  (231) 
0

>  <s_epik_input>  (231) 
W0NIMl0xW0NIXT1DKFtDSDNdKVtDSDJdW0NAQF0oTzIpKFtPSF0pW0NASF0xW0NAXTMoW0NIM10pW0NAXShPNCkoW0NASF0oW09IXSlDKFtDSDJdNSkoW0NIM10pW0NIM10pW0NAQEhdNFtDSDJdW0NASF0oW0NASF01W0NAQF0zKFtDQF0yNjcpTzYpW0NAXTg5W0NAQEhdKFtDSDJdW0NAQEhdKFtDSDJdOClbT0hdKU9DKFtDSDNdKShbQ0gzXSlbQ0BASF03W0NASF05W09IXQ==

>  <s_epik_cmdline>  (231) 
J2VwaWtfcHl0aG9uJywgJy1waHQnLCAnMi4wJywgJy1waCcsICc3LjAnLCAnLXRuJywgJzgnLCAnLW1hJywgJzIwMCcsICctaW1hZScsICc8aW5maWxlLm1hZT4nLCAnLW9tYWUnLCAnPG91dGZpbGUubWFlPic=

>  <r_lp_tautomer_probability>  (231) 
1

>  <r_epik_Ionization_Penalty>  (231) 
1.99548e-06

>  <r_epik_Ionization_Penalty_Charging>  (231) 
0

>  <r_epik_Ionization_Penalty_Neutral>  (231) 
1.99548e-06

>  <r_epik_State_Penalty>  (231) 
-0

>  <r_epik_Charging_Adjusted_Penalty>  (231) 
0

>  <i_epik_Tot_Q>  (231) 
0

>  <i_epik_Tot_abs_Q>  (231) 
0

>  <s_lp_Force_Field>  (231) 
OPLS3e

>  <r_lp_Energy>  (231) 
189.807

>  <b_lp_Chiralities_Consistent>  (231) 
1

>  <s_lp_Variant>  (231) 
75:0-1

>  <s_i_glide_gridfile>  (231) 
pfpi4k_grid

>  <i_i_glide_lignum>  (231) 
26

>  <i_i_glide_rotatable_bonds>  (231) 
4

>  <r_i_docking_score>  (231) 
-2.6494

>  <r_i_glide_ligand_efficiency>  (231) 
-0.0679333

>  <r_i_glide_ligand_efficiency_sa>  (231) 
-0.230376

>  <r_i_glide_ligand_efficiency_ln>  (231) 
-0.568106

>  <r_i_glide_gscore>  (231) 
-2.6494

>  <r_i_glide_lipo>  (231) 
-0.101206

>  <r_i_glide_hbond>  (231) 
-0.208694

>  <r_i_glide_metal>  (231) 
-0

>  <r_i_glide_rewards>  (231) 
0

>  <r_i_glide_evdw>  (231) 
-25.4324

>  <r_i_glide_ecoul>  (231) 
-7.07631

>  <r_i_glide_erotb>  (231) 
0

>  <r_i_glide_esite>  (231) 
-0.00643258

>  <r_i_glide_emodel>  (231) 
-36.6116

>  <r_i_glide_energy>  (231) 
-32.5087

>  <r_i_glide_einternal>  (231) 
2.51446

>  <r_i_glide_intrahb_reward>  (231) 
-0

>  <i_i_glide_confnum>  (231) 
2

>  <i_i_glide_posenum>  (231) 
15

>  <r_i_glide_eff_state_penalty>  (231) 
0

>  <ligand_id>  (231) 
75

>  <original_smiles>  (231) 
CC1=CCC2C(O)(C1)OC13OC14C1CC(C)(C)C(O)C5(OC5CC1C15CC(O)CC1OC(C)(C)C3C5O)C24C

>  <smiles>  (231) 
[H]OC1([H])C([H])([H])C2([H])OC(C([H])([H])[H])(C([H])([H])[H])C3([H])C([H])(O[H])C2(C1([H])[H])C1([H])C([H])([H])C2([H])OC24C([H])(O[H])C(C([H])([H])[H])(C([H])([H])[H])C([H])([H])C1([H])C12OC31OC1(O[H])C([H])([H])C(C([H])([H])[H])=C([H])C([H])([H])C1([H])C42C([H])([H])[H]

$$$$
75:0:2
     RDKit          3D

 83 91  0  0  1  0  0  0  0  0999 V2000
    3.4492   -2.2575   -1.1805 C   0  0  0  0  0  0  0  0  0  0  0  0
    3.7422   -3.1483    0.0096 C   0  0  0  0  0  0  0  0  0  0  0  0
    4.7212   -4.0763   -0.0119 C   0  0  0  0  0  0  0  0  0  0  0  0
    5.0957   -4.9678    1.1647 C   0  0  0  0  0  0  0  0  0  0  0  0
    4.4370   -4.5204    2.4860 C   0  0  1  0  0  0  0  0  0  0  0  0
    2.9085   -4.1229    2.2098 C   0  0  2  0  0  0  0  0  0  0  0  0
    2.1858   -5.1770    1.5807 O   0  0  0  0  0  0  0  0  0  0  0  0
    2.8693   -2.9266    1.2357 C   0  0  0  0  0  0  0  0  0  0  0  0
    2.2672   -3.7107    3.4162 O   0  0  0  0  0  0  0  0  0  0  0  0
    2.0107   -4.7687    4.3487 C   0  0  2  0  0  0  0  0  0  0  0  0
    2.9043   -4.9298    5.4275 O   0  0  0  0  0  0  0  0  0  0  0  0
    3.2672   -5.6512    4.2828 C   0  0  1  0  0  0  0  0  0  0  0  0
    2.9212   -7.1030    4.0472 C   0  0  1  0  0  0  0  0  0  0  0  0
    3.5841   -7.9151    2.8579 C   0  0  0  0  0  0  0  0  0  0  0  0
    5.0449   -8.4756    2.8359 C   0  0  0  0  0  0  0  0  0  0  0  0
    5.0746   -9.8041    3.6391 C   0  0  0  0  0  0  0  0  0  0  0  0
    5.3754   -8.9210    1.3870 C   0  0  0  0  0  0  0  0  0  0  0  0
    6.1206   -7.4512    3.3516 C   0  0  1  0  0  0  0  0  0  0  0  0
    6.9382   -6.8538    2.3783 O   0  0  0  0  0  0  0  0  0  0  0  0
    5.5490   -6.4702    4.3619 C   0  0  2  0  0  0  0  0  0  0  0  0
    6.0948   -6.3116    5.7013 O   0  0  0  0  0  0  0  0  0  0  0  0
    5.1888   -7.3776    5.5954 C   0  0  1  0  0  0  0  0  0  0  0  0
    3.8438   -7.4123    6.3484 C   0  0  0  0  0  0  0  0  0  0  0  0
    2.6093   -7.7215    5.4151 C   0  0  1  0  0  0  0  0  0  0  0  0
    1.1004   -7.4015    5.9360 C   0  0  1  0  0  0  0  0  0  0  0  0
    0.4934   -8.7580    6.3712 C   0  0  0  0  0  0  0  0  0  0  0  0
    0.9657   -9.0015    7.8274 C   0  0  1  0  0  0  0  0  0  0  0  0
    2.0826   -9.8571    7.8608 O   0  0  0  0  0  0  0  0  0  0  0  0
    1.3261   -7.6088    8.3997 C   0  0  0  0  0  0  0  0  0  0  0  0
    0.8698   -6.6700    7.2880 C   0  0  1  0  0  0  0  0  0  0  0  0
    1.1626   -5.2679    7.3368 O   0  0  0  0  0  0  0  0  0  0  0  0
    0.4507   -4.4339    6.3828 C   0  0  0  0  0  0  0  0  0  0  0  0
   -1.0347   -4.2708    6.8074 C   0  0  0  0  0  0  0  0  0  0  0  0
    1.0455   -3.0081    6.5231 C   0  0  0  0  0  0  0  0  0  0  0  0
    0.5918   -5.0369    4.9258 C   0  0  2  0  0  0  0  0  0  0  0  0
    0.1658   -6.5501    4.9921 C   0  0  1  0  0  0  0  0  0  0  0  0
   -0.2262   -7.1195    3.7548 O   0  0  0  0  0  0  0  0  0  0  0  0
    4.6533   -5.2256    3.9170 C   0  0  1  0  0  0  0  0  0  0  0  0
    5.1759   -4.0143    4.7804 C   0  0  0  0  0  0  0  0  0  0  0  0
    3.5556   -1.2072   -0.9078 H   0  0  0  0  0  0  0  0  0  0  0  0
    2.4318   -2.4179   -1.5312 H   0  0  0  0  0  0  0  0  0  0  0  0
    4.1216   -2.4715   -2.0084 H   0  0  0  0  0  0  0  0  0  0  0  0
    5.3082   -4.2109   -0.9101 H   0  0  0  0  0  0  0  0  0  0  0  0
    4.8543   -5.9899    0.8989 H   0  0  0  0  0  0  0  0  0  0  0  0
    6.1750   -4.8684    1.2463 H   0  0  0  0  0  0  0  0  0  0  0  0
    4.9166   -3.5400    2.5765 H   0  0  0  0  0  0  0  0  0  0  0  0
    2.3805   -5.9826    2.0417 H   0  0  0  0  0  0  0  0  0  0  0  0
    3.1895   -2.0261    1.7587 H   0  0  0  0  0  0  0  0  0  0  0  0
    1.8300   -2.7726    0.9343 H   0  0  0  0  0  0  0  0  0  0  0  0
    2.0029   -7.0434    3.5166 H   0  0  0  0  0  0  0  0  0  0  0  0
    2.9283   -8.7650    2.6636 H   0  0  0  0  0  0  0  0  0  0  0  0
    3.4741   -7.3206    1.9560 H   0  0  0  0  0  0  0  0  0  0  0  0
    6.0920  -10.1817    3.7573 H   0  0  0  0  0  0  0  0  0  0  0  0
    4.5083  -10.5885    3.1314 H   0  0  0  0  0  0  0  0  0  0  0  0
    4.6287   -9.7325    4.6282 H   0  0  0  0  0  0  0  0  0  0  0  0
    6.3595   -9.3894    1.3293 H   0  0  0  0  0  0  0  0  0  0  0  0
    5.3689   -8.0938    0.6795 H   0  0  0  0  0  0  0  0  0  0  0  0
    4.6511   -9.6516    1.0164 H   0  0  0  0  0  0  0  0  0  0  0  0
    6.8677   -8.0383    3.8811 H   0  0  0  0  0  0  0  0  0  0  0  0
    7.7328   -6.5620    2.8050 H   0  0  0  0  0  0  0  0  0  0  0  0
    5.7378   -8.2994    5.7540 H   0  0  0  0  0  0  0  0  0  0  0  0
    3.9282   -8.2126    7.0845 H   0  0  0  0  0  0  0  0  0  0  0  0
    3.7329   -6.4991    6.9337 H   0  0  0  0  0  0  0  0  0  0  0  0
    2.6478   -8.7925    5.2249 H   0  0  0  0  0  0  0  0  0  0  0  0
   -0.5892   -8.6776    6.3890 H   0  0  0  0  0  0  0  0  0  0  0  0
    0.6934   -9.5955    5.7000 H   0  0  0  0  0  0  0  0  0  0  0  0
    0.1699   -9.4574    8.4153 H   0  0  0  0  0  0  0  0  0  0  0  0
    1.8047  -10.7784    7.6891 H   0  0  0  0  0  0  0  0  0  0  0  0
    0.8038   -7.3979    9.3344 H   0  0  0  0  0  0  0  0  0  0  0  0
    2.3894   -7.5006    8.6011 H   0  0  0  0  0  0  0  0  0  0  0  0
   -0.2038   -6.6795    7.4766 H   0  0  0  0  0  0  0  0  0  0  0  0
   -1.5386   -3.5768    6.1330 H   0  0  0  0  0  0  0  0  0  0  0  0
   -1.1281   -3.8618    7.8124 H   0  0  0  0  0  0  0  0  0  0  0  0
   -1.6256   -5.1847    6.7982 H   0  0  0  0  0  0  0  0  0  0  0  0
    0.6689   -2.3369    5.7497 H   0  0  0  0  0  0  0  0  0  0  0  0
    2.1325   -2.9890    6.4690 H   0  0  0  0  0  0  0  0  0  0  0  0
    0.7981   -2.5741    7.4916 H   0  0  0  0  0  0  0  0  0  0  0  0
   -0.0994   -4.5104    4.2657 H   0  0  0  0  0  0  0  0  0  0  0  0
   -0.8200   -6.5588    5.4411 H   0  0  0  0  0  0  0  0  0  0  0  0
   -0.5368   -7.9996    3.9141 H   0  0  0  0  0  0  0  0  0  0  0  0
    5.1927   -4.1860    5.8589 H   0  0  0  0  0  0  0  0  0  0  0  0
    4.5609   -3.1190    4.6496 H   0  0  0  0  0  0  0  0  0  0  0  0
    6.1924   -3.7463    4.4912 H   0  0  0  0  0  0  0  0  0  0  0  0
  1  2  1  0
  1 40  1  0
  1 41  1  0
  1 42  1  0
  2  8  1  0
  2  3  2  0
  3  4  1  0
  3 43  1  0
  4  5  1  0
  4 44  1  0
  4 45  1  0
  5 38  1  0
  5  6  1  0
  5 46  1  1
  6  7  1  6
  6  8  1  0
  6  9  1  0
  7 47  1  0
  8 48  1  0
  8 49  1  0
 10  9  1  6
 10 12  1  0
 10 35  1  0
 10 11  1  0
 12 11  1  1
 12 38  1  0
 12 13  1  0
 13 24  1  0
 13 14  1  0
 13 50  1  6
 14 15  1  0
 14 51  1  0
 14 52  1  0
 15 16  1  0
 15 17  1  0
 15 18  1  0
 16 53  1  0
 16 54  1  0
 16 55  1  0
 17 56  1  0
 17 57  1  0
 17 58  1  0
 18 19  1  0
 18 20  1  0
 18 59  1  1
 19 60  1  0
 20 22  1  0
 20 21  1  1
 20 38  1  0
 21 22  1  0
 22 23  1  0
 22 61  1  6
 23 24  1  0
 23 62  1  0
 23 63  1  0
 24 25  1  0
 24 64  1  6
 25 30  1  0
 25 36  1  0
 25 26  1  1
 26 27  1  0
 26 65  1  0
 26 66  1  0
 27 28  1  0
 27 29  1  0
 27 67  1  1
 28 68  1  0
 29 30  1  0
 29 69  1  0
 29 70  1  0
 30 31  1  0
 30 71  1  1
 31 32  1  0
 32 33  1  0
 32 34  1  0
 32 35  1  0
 33 72  1  0
 33 73  1  0
 33 74  1  0
 34 75  1  0
 34 76  1  0
 34 77  1  0
 35 36  1  0
 35 78  1  6
 36 37  1  0
 36 79  1  1
 37 80  1  0
 38 39  1  1
 39 81  1  0
 39 82  1  0
 39 83  1  0
M  END
>  <i_m_ct_stereo_status>  (232) 
1

>  <s_m_source_file>  (232) 
/var/tmp/pbs.5076255.sched01/tmppxy1xzy0/80exjuxwr6.sdf

>  <i_m_source_file_index>  (232) 
26

>  <i_lp_mmshare_version>  (232) 
48012

>  <i_f3d_flags>  (232) 
0

>  <s_epik_input>  (232) 
W0NIMl0xW0NIXT1DKFtDSDNdKVtDSDJdW0NAQF0oTzIpKFtPSF0pW0NASF0xW0NAXTMoW0NIM10pW0NAXShPNCkoW0NASF0oW09IXSlDKFtDSDJdNSkoW0NIM10pW0NIM10pW0NAQEhdNFtDSDJdW0NASF0oW0NASF01W0NAQF0zKFtDQF0yNjcpTzYpW0NAXTg5W0NAQEhdKFtDSDJdW0NAQEhdKFtDSDJdOClbT0hdKU9DKFtDSDNdKShbQ0gzXSlbQ0BASF03W0NASF05W09IXQ==

>  <s_epik_cmdline>  (232) 
J2VwaWtfcHl0aG9uJywgJy1waHQnLCAnMi4wJywgJy1waCcsICc3LjAnLCAnLXRuJywgJzgnLCAnLW1hJywgJzIwMCcsICctaW1hZScsICc8aW5maWxlLm1hZT4nLCAnLW9tYWUnLCAnPG91dGZpbGUubWFlPic=

>  <r_lp_tautomer_probability>  (232) 
1

>  <r_epik_Ionization_Penalty>  (232) 
1.99548e-06

>  <r_epik_Ionization_Penalty_Charging>  (232) 
0

>  <r_epik_Ionization_Penalty_Neutral>  (232) 
1.99548e-06

>  <r_epik_State_Penalty>  (232) 
-0

>  <r_epik_Charging_Adjusted_Penalty>  (232) 
0

>  <i_epik_Tot_Q>  (232) 
0

>  <i_epik_Tot_abs_Q>  (232) 
0

>  <s_lp_Force_Field>  (232) 
OPLS3e

>  <r_lp_Energy>  (232) 
189.807

>  <b_lp_Chiralities_Consistent>  (232) 
1

>  <s_lp_Variant>  (232) 
75:0-1

>  <s_i_glide_gridfile>  (232) 
pfpi4k_grid

>  <i_i_glide_lignum>  (232) 
26

>  <i_i_glide_rotatable_bonds>  (232) 
4

>  <r_i_docking_score>  (232) 
-2.54538

>  <r_i_glide_ligand_efficiency>  (232) 
-0.0652662

>  <r_i_glide_ligand_efficiency_sa>  (232) 
-0.221331

>  <r_i_glide_ligand_efficiency_ln>  (232) 
-0.545802

>  <r_i_glide_gscore>  (232) 
-2.54538

>  <r_i_glide_lipo>  (232) 
-0.098143

>  <r_i_glide_hbond>  (232) 
-0.16

>  <r_i_glide_metal>  (232) 
-0

>  <r_i_glide_rewards>  (232) 
0

>  <r_i_glide_evdw>  (232) 
-26.2645

>  <r_i_glide_ecoul>  (232) 
-6.47405

>  <r_i_glide_erotb>  (232) 
0

>  <r_i_glide_esite>  (232) 
-0.00290453

>  <r_i_glide_emodel>  (232) 
-37.7134

>  <r_i_glide_energy>  (232) 
-32.7386

>  <r_i_glide_einternal>  (232) 
1.35218

>  <r_i_glide_intrahb_reward>  (232) 
-0

>  <i_i_glide_confnum>  (232) 
2

>  <i_i_glide_posenum>  (232) 
1

>  <r_i_glide_eff_state_penalty>  (232) 
0

>  <ligand_id>  (232) 
75

>  <original_smiles>  (232) 
CC1=CCC2C(O)(C1)OC13OC14C1CC(C)(C)C(O)C5(OC5CC1C15CC(O)CC1OC(C)(C)C3C5O)C24C

>  <smiles>  (232) 
[H]OC1([H])C([H])([H])C2([H])OC(C([H])([H])[H])(C([H])([H])[H])C3([H])C([H])(O[H])C2(C1([H])[H])C1([H])C([H])([H])C2([H])OC24C([H])(O[H])C(C([H])([H])[H])(C([H])([H])[H])C([H])([H])C1([H])C12OC31OC1(O[H])C([H])([H])C(C([H])([H])[H])=C([H])C([H])([H])C1([H])C42C([H])([H])[H]

$$$$
76:0:0
     RDKit          3D

 74 81  0  0  1  0  0  0  0  0999 V2000
    4.5419   -2.7326   -3.2822 C   0  0  0  0  0  0  0  0  0  0  0  0
    3.6220   -2.9618   -2.0515 C   0  0  0  0  0  0  0  0  0  0  0  0
    2.2164   -3.3275   -2.5264 C   0  0  0  0  0  0  0  0  0  0  0  0
    4.0669   -4.0218   -1.2689 O   0  0  0  0  0  0  0  0  0  0  0  0
    5.2876   -3.8079   -0.5951 C   0  0  0  0  0  0  0  0  0  0  0  0
    5.2135   -2.5315    0.2619 C   0  0  2  0  0  0  0  0  0  0  0  0
    6.6552   -2.1624    0.7093 C   0  0  0  0  0  0  0  0  0  0  0  0
    4.2121   -2.6230    1.4005 C   0  0  2  0  0  0  0  0  0  0  0  0
    4.0244   -1.1781    1.7313 C   0  0  1  0  0  0  0  0  0  0  0  0
    3.9414   -0.5169    0.4780 O   0  0  0  0  0  0  0  0  0  0  0  0
    4.5021   -1.3597   -0.5092 C   0  0  1  0  0  0  0  0  0  0  0  0
    5.4093   -0.6590   -1.3009 O   0  0  0  0  0  0  0  0  0  0  0  0
    3.4351   -1.8051   -1.2899 O   0  0  0  0  0  0  0  0  0  0  0  0
    2.9196   -1.2188    2.7824 C   0  0  1  0  0  0  0  0  0  0  0  0
    1.7057   -1.4447    2.0822 O   0  0  0  0  0  0  0  0  0  0  0  0
    3.3546   -2.4463    3.7087 C   0  0  1  0  0  0  0  0  0  0  0  0
    4.1593   -1.8588    4.9047 C   0  0  0  0  0  0  0  0  0  0  0  0
    2.0629   -3.2141    4.2929 C   0  0  2  0  0  0  0  0  0  0  0  0
    1.0465   -2.2101    4.9525 C   0  0  0  0  0  0  0  0  0  0  0  0
    0.3719   -2.6652    6.2332 C   0  0  0  0  0  0  0  0  0  0  0  0
    0.3580   -3.9489    6.6184 C   0  0  0  0  0  0  0  0  0  0  0  0
   -0.1429   -4.4271    7.8999 C   0  0  0  0  0  0  0  0  0  0  0  0
   -0.7771   -3.7829    8.7282 O   0  0  0  0  0  0  0  0  0  0  0  0
    0.2257   -5.8896    8.0829 C   0  0  0  0  0  0  0  0  0  0  0  0
    1.3346   -6.0915    7.0359 C   0  0  1  0  0  0  0  0  0  0  0  0
    1.5134   -7.5479    6.6435 C   0  0  0  0  0  0  0  0  0  0  0  0
    1.5532   -8.4141    5.7066 C   0  0  0  0  0  0  0  0  0  0  0  0
    1.8195   -8.8745    7.1914 C   0  0  0  0  0  0  0  0  0  0  0  0
    1.0351   -5.0795    5.8841 C   0  0  1  0  0  0  0  0  0  0  0  0
   -0.0006   -5.6424    4.8816 C   0  0  0  0  0  0  0  0  0  0  0  0
    2.3103   -4.5023    5.1819 C   0  0  1  0  0  0  0  0  0  0  0  0
    2.9493   -5.5155    4.2832 C   0  0  2  0  0  0  0  0  0  0  0  0
    3.9018   -6.5390    4.5864 O   0  0  0  0  0  0  0  0  0  0  0  0
    4.3991   -5.2660    4.1324 C   0  0  1  0  0  0  0  0  0  0  0  0
    4.6039   -4.7528    2.7478 C   0  0  0  0  0  0  0  0  0  0  0  0
    4.4404   -3.2144    2.7819 C   0  0  1  0  0  0  0  0  0  0  0  0
    5.5717   -2.5141   -3.0058 H   0  0  0  0  0  0  0  0  0  0  0  0
    4.1731   -1.9018   -3.8858 H   0  0  0  0  0  0  0  0  0  0  0  0
    4.5611   -3.6287   -3.9051 H   0  0  0  0  0  0  0  0  0  0  0  0
    1.5752   -3.4878   -1.6580 H   0  0  0  0  0  0  0  0  0  0  0  0
    2.2171   -4.2328   -3.1339 H   0  0  0  0  0  0  0  0  0  0  0  0
    1.7957   -2.5198   -3.1267 H   0  0  0  0  0  0  0  0  0  0  0  0
    5.4691   -4.6824    0.0325 H   0  0  0  0  0  0  0  0  0  0  0  0
    6.1149   -3.7721   -1.3041 H   0  0  0  0  0  0  0  0  0  0  0  0
    6.7317   -1.2138    1.2410 H   0  0  0  0  0  0  0  0  0  0  0  0
    7.3336   -2.0955   -0.1417 H   0  0  0  0  0  0  0  0  0  0  0  0
    7.0644   -2.9369    1.3554 H   0  0  0  0  0  0  0  0  0  0  0  0
    3.2855   -3.0412    1.0006 H   0  0  0  0  0  0  0  0  0  0  0  0
    4.9009   -0.7520    2.2171 H   0  0  0  0  0  0  0  0  0  0  0  0
    5.0408    0.2063   -1.4411 H   0  0  0  0  0  0  0  0  0  0  0  0
    2.8335   -0.2757    3.3277 H   0  0  0  0  0  0  0  0  0  0  0  0
    1.6472   -0.8298    1.3605 H   0  0  0  0  0  0  0  0  0  0  0  0
    4.5972   -2.6362    5.5273 H   0  0  0  0  0  0  0  0  0  0  0  0
    3.5676   -1.2281    5.5632 H   0  0  0  0  0  0  0  0  0  0  0  0
    4.9826   -1.2317    4.5639 H   0  0  0  0  0  0  0  0  0  0  0  0
    1.5375   -3.5954    3.4133 H   0  0  0  0  0  0  0  0  0  0  0  0
    1.5078   -1.2501    5.1742 H   0  0  0  0  0  0  0  0  0  0  0  0
    0.2474   -1.9909    4.2452 H   0  0  0  0  0  0  0  0  0  0  0  0
   -0.0772   -1.8934    6.8418 H   0  0  0  0  0  0  0  0  0  0  0  0
    0.5342   -6.1133    9.1094 H   0  0  0  0  0  0  0  0  0  0  0  0
   -0.6564   -6.4799    7.8447 H   0  0  0  0  0  0  0  0  0  0  0  0
    2.2655   -5.8019    7.5222 H   0  0  0  0  0  0  0  0  0  0  0  0
    1.4896   -8.7177    4.6758 H   0  0  0  0  0  0  0  0  0  0  0  0
    2.8284   -9.1477    7.4923 H   0  0  0  0  0  0  0  0  0  0  0  0
    1.0654   -9.4612    7.7105 H   0  0  0  0  0  0  0  0  0  0  0  0
    0.3674   -6.4873    4.3068 H   0  0  0  0  0  0  0  0  0  0  0  0
   -0.2731   -4.8717    4.1710 H   0  0  0  0  0  0  0  0  0  0  0  0
   -0.9119   -5.9658    5.3911 H   0  0  0  0  0  0  0  0  0  0  0  0
    3.0144   -4.2457    5.9739 H   0  0  0  0  0  0  0  0  0  0  0  0
    2.3497   -5.7980    3.4211 H   0  0  0  0  0  0  0  0  0  0  0  0
    4.9697   -4.7601    4.9071 H   0  0  0  0  0  0  0  0  0  0  0  0
    5.6060   -5.0246    2.4089 H   0  0  0  0  0  0  0  0  0  0  0  0
    3.9011   -5.2066    2.0449 H   0  0  0  0  0  0  0  0  0  0  0  0
    5.4212   -2.8628    3.1078 H   0  0  0  0  0  0  0  0  0  0  0  0
  1  2  1  0
  1 37  1  0
  1 38  1  0
  1 39  1  0
  2 13  1  0
  2  3  1  0
  2  4  1  0
  3 40  1  0
  3 41  1  0
  3 42  1  0
  4  5  1  0
  5  6  1  0
  5 43  1  0
  5 44  1  0
  6 11  1  0
  6  7  1  1
  6  8  1  0
  7 45  1  0
  7 46  1  0
  7 47  1  0
  8 36  1  0
  8  9  1  0
  8 48  1  6
  9 10  1  0
  9 14  1  0
  9 49  1  1
 10 11  1  0
 11 12  1  6
 11 13  1  0
 12 50  1  0
 14 15  1  0
 14 16  1  0
 14 51  1  1
 15 52  1  0
 16 36  1  0
 16 17  1  1
 16 18  1  0
 17 53  1  0
 17 54  1  0
 17 55  1  0
 18 31  1  0
 18 19  1  0
 18 56  1  6
 19 20  1  0
 19 57  1  0
 19 58  1  0
 20 21  2  0
 20 59  1  0
 21 29  1  0
 21 22  1  0
 22 23  2  0
 22 24  1  0
 24 25  1  0
 24 60  1  0
 24 61  1  0
 25 26  1  0
 25 29  1  0
 25 62  1  1
 26 28  1  0
 26 27  2  0
 27 28  1  0
 27 63  1  0
 28 64  1  0
 28 65  1  0
 29 30  1  6
 29 31  1  0
 30 66  1  0
 30 67  1  0
 30 68  1  0
 31 32  1  0
 31 69  1  1
 32 34  1  0
 32 33  1  0
 32 70  1  6
 33 34  1  0
 34 35  1  0
 34 71  1  1
 35 36  1  0
 35 72  1  0
 35 73  1  0
 36 74  1  1
M  END
>  <i_m_ct_stereo_status>  (233) 
1

>  <s_m_source_file>  (233) 
/var/tmp/pbs.5076255.sched01/tmppxy1xzy0/80exjuxwr6.sdf

>  <i_m_source_file_index>  (233) 
27

>  <i_lp_mmshare_version>  (233) 
48012

>  <i_f3d_flags>  (233) 
0

>  <s_epik_input>  (233) 
W0NIMl0xT0MoW0NIM10pKFtDSDNdKU9bQ0BAXTIoW09IXSlPW0NASF0oW0NASF0zW0NAQF0xMltDSDNdKVtDQEBIXShbT0hdKVtDQEBdNChbQ0gzXSlbQ0BIXTVbQ0BIXShbQ0BIXTZbQ0BASF0oTzYpW0NIMl1bQ0BASF0zNClbQ0BdNyhbQ0gzXSlDKD1bQ0hdW0NIMl01KUMoPU8pW0NIMl1bQ0BIXTdDOD1bQ0hdW0NIMl04

>  <s_epik_cmdline>  (233) 
J2VwaWtfcHl0aG9uJywgJy1waHQnLCAnMi4wJywgJy1waCcsICc3LjAnLCAnLXRuJywgJzgnLCAnLW1hJywgJzIwMCcsICctaW1hZScsICc8aW5maWxlLm1hZT4nLCAnLW9tYWUnLCAnPG91dGZpbGUubWFlPic=

>  <r_lp_tautomer_probability>  (233) 
1

>  <r_epik_Ionization_Penalty>  (233) 
0.000183765

>  <r_epik_Ionization_Penalty_Charging>  (233) 
0

>  <r_epik_Ionization_Penalty_Neutral>  (233) 
0.000183765

>  <r_epik_State_Penalty>  (233) 
-0

>  <r_epik_Charging_Adjusted_Penalty>  (233) 
0

>  <i_epik_Tot_Q>  (233) 
0

>  <i_epik_Tot_abs_Q>  (233) 
0

>  <s_lp_Force_Field>  (233) 
OPLS3e

>  <r_lp_Energy>  (233) 
70.5436

>  <b_lp_Chiralities_Consistent>  (233) 
1

>  <s_lp_Variant>  (233) 
76:0-1

>  <s_i_glide_gridfile>  (233) 
pfpi4k_grid

>  <i_i_glide_lignum>  (233) 
27

>  <i_i_glide_rotatable_bonds>  (233) 
3

>  <r_i_docking_score>  (233) 
-2.42129

>  <r_i_glide_ligand_efficiency>  (233) 
-0.067258

>  <r_i_glide_ligand_efficiency_sa>  (233) 
-0.222081

>  <r_i_glide_ligand_efficiency_ln>  (233) 
-0.52826

>  <r_i_glide_gscore>  (233) 
-2.42129

>  <r_i_glide_lipo>  (233) 
-0.556028

>  <r_i_glide_hbond>  (233) 
-0.0619743

>  <r_i_glide_metal>  (233) 
-0

>  <r_i_glide_rewards>  (233) 
-0.00949214

>  <r_i_glide_evdw>  (233) 
-30.004

>  <r_i_glide_ecoul>  (233) 
-2.06901

>  <r_i_glide_erotb>  (233) 
0.0820852

>  <r_i_glide_esite>  (233) 
-0.0653265

>  <r_i_glide_emodel>  (233) 
-36.3091

>  <r_i_glide_energy>  (233) 
-32.073

>  <r_i_glide_einternal>  (233) 
0.983738

>  <r_i_glide_intrahb_reward>  (233) 
-0

>  <i_i_glide_confnum>  (233) 
3

>  <i_i_glide_posenum>  (233) 
26

>  <r_i_glide_eff_state_penalty>  (233) 
0

>  <ligand_id>  (233) 
76

>  <original_smiles>  (233) 
CC1(C)OCC2(C)C3C(OC2(O)O1)C(O)C1(C)C2CC=C4C(=O)CC(C5=CC5)C4(C)C2C2OC2CC31

>  <smiles>  (233) 
[H]OC12OC3([H])C([H])(O[H])C4(C([H])([H])[H])C5([H])C([H])([H])C([H])=C6C(=O)C([H])([H])C([H])(C7=C([H])C7([H])[H])C6(C([H])([H])[H])C5([H])C5([H])OC5([H])C([H])([H])C4([H])C3([H])C1(C([H])([H])[H])C([H])([H])OC(C([H])([H])[H])(C([H])([H])[H])O2

$$$$
76:0:1
     RDKit          3D

 74 81  0  0  1  0  0  0  0  0999 V2000
    4.7631   -3.5744   -2.2763 C   0  0  0  0  0  0  0  0  0  0  0  0
    4.5455   -2.4173   -1.2705 C   0  0  0  0  0  0  0  0  0  0  0  0
    4.7916   -1.0736   -1.9585 C   0  0  0  0  0  0  0  0  0  0  0  0
    3.2333   -2.3660   -0.8385 O   0  0  0  0  0  0  0  0  0  0  0  0
    2.8333   -3.4261   -0.0015 C   0  0  0  0  0  0  0  0  0  0  0  0
    3.7730   -3.5801    1.2069 C   0  0  2  0  0  0  0  0  0  0  0  0
    3.4822   -4.9509    1.8865 C   0  0  0  0  0  0  0  0  0  0  0  0
    3.7403   -2.3942    2.1566 C   0  0  2  0  0  0  0  0  0  0  0  0
    5.0177   -2.5878    2.9033 C   0  0  1  0  0  0  0  0  0  0  0  0
    5.9703   -2.9486    1.9142 O   0  0  0  0  0  0  0  0  0  0  0  0
    5.2886   -3.4467    0.7752 C   0  0  1  0  0  0  0  0  0  0  0  0
    5.8184   -4.6906    0.3728 O   0  0  0  0  0  0  0  0  0  0  0  0
    5.4621   -2.4655   -0.2162 O   0  0  0  0  0  0  0  0  0  0  0  0
    5.0759   -1.3377    3.7822 C   0  0  1  0  0  0  0  0  0  0  0  0
    5.4947   -0.2644    2.9528 O   0  0  0  0  0  0  0  0  0  0  0  0
    3.5866   -1.1987    4.3183 C   0  0  1  0  0  0  0  0  0  0  0  0
    3.5277   -1.8948    5.7101 C   0  0  0  0  0  0  0  0  0  0  0  0
    3.1929    0.3508    4.5063 C   0  0  2  0  0  0  0  0  0  0  0  0
    4.2746    1.1233    5.3514 C   0  0  0  0  0  0  0  0  0  0  0  0
    3.7613    2.1369    6.3514 C   0  0  0  0  0  0  0  0  0  0  0  0
    2.5087    2.6161    6.3130 C   0  0  0  0  0  0  0  0  0  0  0  0
    1.9127    3.4772    7.3217 C   0  0  0  0  0  0  0  0  0  0  0  0
    2.4858    4.0242    8.2672 O   0  0  0  0  0  0  0  0  0  0  0  0
    0.4250    3.6194    7.0673 C   0  0  0  0  0  0  0  0  0  0  0  0
    0.1353    2.4319    6.1277 C   0  0  1  0  0  0  0  0  0  0  0  0
   -1.1453    2.6054    5.3275 C   0  0  0  0  0  0  0  0  0  0  0  0
   -1.7419    2.4563    4.2121 C   0  0  0  0  0  0  0  0  0  0  0  0
   -2.5140    3.1012    5.4316 C   0  0  0  0  0  0  0  0  0  0  0  0
    1.4549    2.1806    5.3250 C   0  0  1  0  0  0  0  0  0  0  0  0
    1.5728    3.1288    4.0992 C   0  0  0  0  0  0  0  0  0  0  0  0
    1.7130    0.6829    4.9700 C   0  0  1  0  0  0  0  0  0  0  0  0
    0.8109    0.2169    3.8670 C   0  0  2  0  0  0  0  0  0  0  0  0
   -0.5150   -0.3159    3.9389 O   0  0  0  0  0  0  0  0  0  0  0  0
    0.5893   -1.2399    3.9518 C   0  0  1  0  0  0  0  0  0  0  0  0
    1.3457   -1.8486    2.8188 C   0  0  0  0  0  0  0  0  0  0  0  0
    2.7721   -2.1598    3.3068 C   0  0  1  0  0  0  0  0  0  0  0  0
    4.5432   -4.5451   -1.8404 H   0  0  0  0  0  0  0  0  0  0  0  0
    5.7957   -3.5903   -2.6260 H   0  0  0  0  0  0  0  0  0  0  0  0
    4.1040   -3.4487   -3.1330 H   0  0  0  0  0  0  0  0  0  0  0  0
    4.6481   -0.2585   -1.2458 H   0  0  0  0  0  0  0  0  0  0  0  0
    4.1135   -0.9320   -2.8016 H   0  0  0  0  0  0  0  0  0  0  0  0
    5.8180   -1.0377   -2.3160 H   0  0  0  0  0  0  0  0  0  0  0  0
    1.8241   -3.2000    0.3372 H   0  0  0  0  0  0  0  0  0  0  0  0
    2.7543   -4.3491   -0.5733 H   0  0  0  0  0  0  0  0  0  0  0  0
    4.1767   -5.2028    2.6876 H   0  0  0  0  0  0  0  0  0  0  0  0
    3.5337   -5.7711    1.1672 H   0  0  0  0  0  0  0  0  0  0  0  0
    2.4744   -4.9716    2.3038 H   0  0  0  0  0  0  0  0  0  0  0  0
    3.7825   -1.4806    1.5600 H   0  0  0  0  0  0  0  0  0  0  0  0
    4.9700   -3.4446    3.5759 H   0  0  0  0  0  0  0  0  0  0  0  0
    5.2591   -5.0323   -0.3077 H   0  0  0  0  0  0  0  0  0  0  0  0
    5.8030   -1.4395    4.5881 H   0  0  0  0  0  0  0  0  0  0  0  0
    6.3750   -0.4516    2.6560 H   0  0  0  0  0  0  0  0  0  0  0  0
    2.5136   -1.9496    6.0999 H   0  0  0  0  0  0  0  0  0  0  0  0
    4.1281   -1.4029    6.4726 H   0  0  0  0  0  0  0  0  0  0  0  0
    3.9018   -2.9183    5.6626 H   0  0  0  0  0  0  0  0  0  0  0  0
    3.2594    0.7877    3.5084 H   0  0  0  0  0  0  0  0  0  0  0  0
    4.9241    0.4471    5.9001 H   0  0  0  0  0  0  0  0  0  0  0  0
    4.9316    1.6652    4.6730 H   0  0  0  0  0  0  0  0  0  0  0  0
    4.4519    2.4514    7.1207 H   0  0  0  0  0  0  0  0  0  0  0  0
   -0.1473    3.5930    7.9976 H   0  0  0  0  0  0  0  0  0  0  0  0
    0.2585    4.5794    6.5800 H   0  0  0  0  0  0  0  0  0  0  0  0
   -0.0527    1.5802    6.7780 H   0  0  0  0  0  0  0  0  0  0  0  0
   -1.8005    2.1519    3.1850 H   0  0  0  0  0  0  0  0  0  0  0  0
   -3.2729    2.5449    5.9744 H   0  0  0  0  0  0  0  0  0  0  0  0
   -2.7136    4.1596    5.4069 H   0  0  0  0  0  0  0  0  0  0  0  0
    0.8236    2.9283    3.3347 H   0  0  0  0  0  0  0  0  0  0  0  0
    2.5552    3.0455    3.6303 H   0  0  0  0  0  0  0  0  0  0  0  0
    1.4545    4.1719    4.3968 H   0  0  0  0  0  0  0  0  0  0  0  0
    1.4965    0.1038    5.8691 H   0  0  0  0  0  0  0  0  0  0  0  0
    0.9924    0.6942    2.9032 H   0  0  0  0  0  0  0  0  0  0  0  0
    0.6433   -1.7805    4.8952 H   0  0  0  0  0  0  0  0  0  0  0  0
    0.8512   -2.7687    2.5202 H   0  0  0  0  0  0  0  0  0  0  0  0
    1.3545   -1.1982    1.9398 H   0  0  0  0  0  0  0  0  0  0  0  0
    2.6612   -3.1190    3.8172 H   0  0  0  0  0  0  0  0  0  0  0  0
  1  2  1  0
  1 37  1  0
  1 38  1  0
  1 39  1  0
  2 13  1  0
  2  3  1  0
  2  4  1  0
  3 40  1  0
  3 41  1  0
  3 42  1  0
  4  5  1  0
  5  6  1  0
  5 43  1  0
  5 44  1  0
  6 11  1  0
  6  7  1  1
  6  8  1  0
  7 45  1  0
  7 46  1  0
  7 47  1  0
  8 36  1  0
  8  9  1  0
  8 48  1  6
  9 10  1  0
  9 14  1  0
  9 49  1  1
 10 11  1  0
 11 12  1  6
 11 13  1  0
 12 50  1  0
 14 15  1  0
 14 16  1  0
 14 51  1  1
 15 52  1  0
 16 36  1  0
 16 17  1  1
 16 18  1  0
 17 53  1  0
 17 54  1  0
 17 55  1  0
 18 31  1  0
 18 19  1  0
 18 56  1  6
 19 20  1  0
 19 57  1  0
 19 58  1  0
 20 21  2  0
 20 59  1  0
 21 29  1  0
 21 22  1  0
 22 23  2  0
 22 24  1  0
 24 25  1  0
 24 60  1  0
 24 61  1  0
 25 26  1  0
 25 29  1  0
 25 62  1  1
 26 28  1  0
 26 27  2  0
 27 28  1  0
 27 63  1  0
 28 64  1  0
 28 65  1  0
 29 30  1  6
 29 31  1  0
 30 66  1  0
 30 67  1  0
 30 68  1  0
 31 32  1  0
 31 69  1  1
 32 34  1  0
 32 33  1  0
 32 70  1  6
 33 34  1  0
 34 35  1  0
 34 71  1  1
 35 36  1  0
 35 72  1  0
 35 73  1  0
 36 74  1  1
M  END
>  <i_m_ct_stereo_status>  (234) 
1

>  <s_m_source_file>  (234) 
/var/tmp/pbs.5076255.sched01/tmppxy1xzy0/80exjuxwr6.sdf

>  <i_m_source_file_index>  (234) 
27

>  <i_lp_mmshare_version>  (234) 
48012

>  <i_f3d_flags>  (234) 
0

>  <s_epik_input>  (234) 
W0NIMl0xT0MoW0NIM10pKFtDSDNdKU9bQ0BAXTIoW09IXSlPW0NASF0oW0NASF0zW0NAQF0xMltDSDNdKVtDQEBIXShbT0hdKVtDQEBdNChbQ0gzXSlbQ0BIXTVbQ0BIXShbQ0BIXTZbQ0BASF0oTzYpW0NIMl1bQ0BASF0zNClbQ0BdNyhbQ0gzXSlDKD1bQ0hdW0NIMl01KUMoPU8pW0NIMl1bQ0BIXTdDOD1bQ0hdW0NIMl04

>  <s_epik_cmdline>  (234) 
J2VwaWtfcHl0aG9uJywgJy1waHQnLCAnMi4wJywgJy1waCcsICc3LjAnLCAnLXRuJywgJzgnLCAnLW1hJywgJzIwMCcsICctaW1hZScsICc8aW5maWxlLm1hZT4nLCAnLW9tYWUnLCAnPG91dGZpbGUubWFlPic=

>  <r_lp_tautomer_probability>  (234) 
1

>  <r_epik_Ionization_Penalty>  (234) 
0.000183765

>  <r_epik_Ionization_Penalty_Charging>  (234) 
0

>  <r_epik_Ionization_Penalty_Neutral>  (234) 
0.000183765

>  <r_epik_State_Penalty>  (234) 
-0

>  <r_epik_Charging_Adjusted_Penalty>  (234) 
0

>  <i_epik_Tot_Q>  (234) 
0

>  <i_epik_Tot_abs_Q>  (234) 
0

>  <s_lp_Force_Field>  (234) 
OPLS3e

>  <r_lp_Energy>  (234) 
70.5436

>  <b_lp_Chiralities_Consistent>  (234) 
1

>  <s_lp_Variant>  (234) 
76:0-1

>  <s_i_glide_gridfile>  (234) 
pfpi4k_grid

>  <i_i_glide_lignum>  (234) 
27

>  <i_i_glide_rotatable_bonds>  (234) 
3

>  <r_i_docking_score>  (234) 
-1.83156

>  <r_i_glide_ligand_efficiency>  (234) 
-0.0508768

>  <r_i_glide_ligand_efficiency_sa>  (234) 
-0.167991

>  <r_i_glide_ligand_efficiency_ln>  (234) 
-0.399598

>  <r_i_glide_gscore>  (234) 
-1.83156

>  <r_i_glide_lipo>  (234) 
-0.16284

>  <r_i_glide_hbond>  (234) 
0

>  <r_i_glide_metal>  (234) 
-0

>  <r_i_glide_rewards>  (234) 
-0.0691319

>  <r_i_glide_evdw>  (234) 
-29.0803

>  <r_i_glide_ecoul>  (234) 
-1.38699

>  <r_i_glide_erotb>  (234) 
0.0820852

>  <r_i_glide_esite>  (234) 
-0.0196138

>  <r_i_glide_emodel>  (234) 
-32.9094

>  <r_i_glide_energy>  (234) 
-30.4673

>  <r_i_glide_einternal>  (234) 
2.44108

>  <r_i_glide_intrahb_reward>  (234) 
-0

>  <i_i_glide_confnum>  (234) 
6

>  <i_i_glide_posenum>  (234) 
34

>  <r_i_glide_eff_state_penalty>  (234) 
0

>  <ligand_id>  (234) 
76

>  <original_smiles>  (234) 
CC1(C)OCC2(C)C3C(OC2(O)O1)C(O)C1(C)C2CC=C4C(=O)CC(C5=CC5)C4(C)C2C2OC2CC31

>  <smiles>  (234) 
[H]OC12OC3([H])C([H])(O[H])C4(C([H])([H])[H])C5([H])C([H])([H])C([H])=C6C(=O)C([H])([H])C([H])(C7=C([H])C7([H])[H])C6(C([H])([H])[H])C5([H])C5([H])OC5([H])C([H])([H])C4([H])C3([H])C1(C([H])([H])[H])C([H])([H])OC(C([H])([H])[H])(C([H])([H])[H])O2

$$$$
76:0:2
     RDKit          3D

 74 81  0  0  1  0  0  0  0  0999 V2000
    4.4108   -6.6217    0.7367 C   0  0  0  0  0  0  0  0  0  0  0  0
    4.2628   -5.1053    1.0210 C   0  0  0  0  0  0  0  0  0  0  0  0
    4.6964   -4.2982   -0.2111 C   0  0  0  0  0  0  0  0  0  0  0  0
    2.9339   -4.7597    1.2509 O   0  0  0  0  0  0  0  0  0  0  0  0
    2.4028   -5.2518    2.4657 C   0  0  0  0  0  0  0  0  0  0  0  0
    3.2741   -4.8610    3.6770 C   0  0  2  0  0  0  0  0  0  0  0  0
    2.8218   -5.6983    4.9073 C   0  0  0  0  0  0  0  0  0  0  0  0
    3.3131   -3.3618    3.9262 C   0  0  2  0  0  0  0  0  0  0  0  0
    4.5309   -3.2363    4.7801 C   0  0  1  0  0  0  0  0  0  0  0  0
    5.4821   -4.0981    4.1808 O   0  0  0  0  0  0  0  0  0  0  0  0
    4.8147   -5.0434    3.3676 C   0  0  1  0  0  0  0  0  0  0  0  0
    5.2548   -6.3493    3.6572 O   0  0  0  0  0  0  0  0  0  0  0  0
    5.1157   -4.6785    2.0463 O   0  0  0  0  0  0  0  0  0  0  0  0
    4.6748   -1.7220    4.9389 C   0  0  1  0  0  0  0  0  0  0  0  0
    5.2283   -1.1996    3.7395 O   0  0  0  0  0  0  0  0  0  0  0  0
    3.1773   -1.2488    5.2098 C   0  0  1  0  0  0  0  0  0  0  0  0
    2.9892   -1.1687    6.7542 C   0  0  0  0  0  0  0  0  0  0  0  0
    2.9259    0.2164    4.5900 C   0  0  2  0  0  0  0  0  0  0  0  0
    4.0403    1.2339    5.0436 C   0  0  0  0  0  0  0  0  0  0  0  0
    3.5829    2.6380    5.3813 C   0  0  0  0  0  0  0  0  0  0  0  0
    2.3860    3.1126    5.0080 C   0  0  0  0  0  0  0  0  0  0  0  0
    1.8356    4.3985    5.4157 C   0  0  0  0  0  0  0  0  0  0  0  0
    2.4145    5.2946    6.0256 O   0  0  0  0  0  0  0  0  0  0  0  0
    0.3800    4.4873    4.9932 C   0  0  0  0  0  0  0  0  0  0  0  0
    0.0211    3.0142    4.7304 C   0  0  1  0  0  0  0  0  0  0  0  0
   -1.1959    2.8578    3.8330 C   0  0  0  0  0  0  0  0  0  0  0  0
   -1.7129    2.2778    2.8249 C   0  0  0  0  0  0  0  0  0  0  0  0
   -2.5711    3.3277    3.6302 C   0  0  0  0  0  0  0  0  0  0  0  0
    1.3416    2.3187    4.2663 C   0  0  1  0  0  0  0  0  0  0  0  0
    1.6181    2.5328    2.7526 C   0  0  0  0  0  0  0  0  0  0  0  0
    1.4653    0.8236    4.7026 C   0  0  1  0  0  0  0  0  0  0  0  0
    0.5730   -0.0664    3.8866 C   0  0  2  0  0  0  0  0  0  0  0  0
   -0.8009   -0.4190    4.0857 O   0  0  0  0  0  0  0  0  0  0  0  0
    0.2042   -1.2827    4.6417 C   0  0  1  0  0  0  0  0  0  0  0  0
    0.9428   -2.4190    4.0194 C   0  0  0  0  0  0  0  0  0  0  0  0
    2.3153   -2.5321    4.7214 C   0  0  1  0  0  0  0  0  0  0  0  0
    4.0705   -7.2376    1.5672 H   0  0  0  0  0  0  0  0  0  0  0  0
    5.4523   -6.8718    0.5384 H   0  0  0  0  0  0  0  0  0  0  0  0
    3.8222   -6.8882   -0.1379 H   0  0  0  0  0  0  0  0  0  0  0  0
    4.5987   -3.2316    0.0020 H   0  0  0  0  0  0  0  0  0  0  0  0
    4.0753   -4.5415   -1.0735 H   0  0  0  0  0  0  0  0  0  0  0  0
    5.7395   -4.5064   -0.4528 H   0  0  0  0  0  0  0  0  0  0  0  0
    1.4020   -4.8348    2.5759 H   0  0  0  0  0  0  0  0  0  0  0  0
    2.2664   -6.3303    2.4050 H   0  0  0  0  0  0  0  0  0  0  0  0
    3.4510   -5.5651    5.7869 H   0  0  0  0  0  0  0  0  0  0  0  0
    2.8316   -6.7665    4.6829 H   0  0  0  0  0  0  0  0  0  0  0  0
    1.7980   -5.4519    5.1916 H   0  0  0  0  0  0  0  0  0  0  0  0
    3.4740   -2.8672    2.9670 H   0  0  0  0  0  0  0  0  0  0  0  0
    4.3755   -3.6424    5.7803 H   0  0  0  0  0  0  0  0  0  0  0  0
    6.1747   -6.3906    3.4354 H   0  0  0  0  0  0  0  0  0  0  0  0
    5.3566   -1.4658    5.7509 H   0  0  0  0  0  0  0  0  0  0  0  0
    4.6936   -1.4717    3.0096 H   0  0  0  0  0  0  0  0  0  0  0  0
    1.9583   -0.9600    7.0317 H   0  0  0  0  0  0  0  0  0  0  0  0
    3.6006   -0.4062    7.2324 H   0  0  0  0  0  0  0  0  0  0  0  0
    3.2613   -2.1055    7.2418 H   0  0  0  0  0  0  0  0  0  0  0  0
    3.0773    0.1064    3.5150 H   0  0  0  0  0  0  0  0  0  0  0  0
    4.5973    0.8754    5.9061 H   0  0  0  0  0  0  0  0  0  0  0  0
    4.7796    1.3354    4.2492 H   0  0  0  0  0  0  0  0  0  0  0  0
    4.2662    3.2476    5.9559 H   0  0  0  0  0  0  0  0  0  0  0  0
   -0.2345    4.9556    5.7641 H   0  0  0  0  0  0  0  0  0  0  0  0
    0.3324    5.0869    4.0843 H   0  0  0  0  0  0  0  0  0  0  0  0
   -0.2765    2.5986    5.6914 H   0  0  0  0  0  0  0  0  0  0  0  0
   -1.6936    1.5933    1.9971 H   0  0  0  0  0  0  0  0  0  0  0  0
   -3.3856    2.9751    4.2571 H   0  0  0  0  0  0  0  0  0  0  0  0
   -2.7699    4.2947    3.1775 H   0  0  0  0  0  0  0  0  0  0  0  0
    0.8929    2.0335    2.1140 H   0  0  0  0  0  0  0  0  0  0  0  0
    2.6085    2.1723    2.4721 H   0  0  0  0  0  0  0  0  0  0  0  0
    1.5833    3.5918    2.4922 H   0  0  0  0  0  0  0  0  0  0  0  0
    1.1555    0.7729    5.7478 H   0  0  0  0  0  0  0  0  0  0  0  0
    0.8428   -0.1320    2.8317 H   0  0  0  0  0  0  0  0  0  0  0  0
    0.1677   -1.2887    5.7299 H   0  0  0  0  0  0  0  0  0  0  0  0
    0.3676   -3.3360    4.1497 H   0  0  0  0  0  0  0  0  0  0  0  0
    1.0637   -2.2772    2.9420 H   0  0  0  0  0  0  0  0  0  0  0  0
    2.0908   -3.1076    5.6221 H   0  0  0  0  0  0  0  0  0  0  0  0
  1  2  1  0
  1 37  1  0
  1 38  1  0
  1 39  1  0
  2 13  1  0
  2  3  1  0
  2  4  1  0
  3 40  1  0
  3 41  1  0
  3 42  1  0
  4  5  1  0
  5  6  1  0
  5 43  1  0
  5 44  1  0
  6 11  1  0
  6  7  1  1
  6  8  1  0
  7 45  1  0
  7 46  1  0
  7 47  1  0
  8 36  1  0
  8  9  1  0
  8 48  1  6
  9 10  1  0
  9 14  1  0
  9 49  1  1
 10 11  1  0
 11 12  1  1
 11 13  1  0
 12 50  1  0
 14 15  1  0
 14 16  1  0
 14 51  1  1
 15 52  1  0
 16 36  1  0
 16 17  1  1
 16 18  1  0
 17 53  1  0
 17 54  1  0
 17 55  1  0
 18 31  1  0
 18 19  1  0
 18 56  1  6
 19 20  1  0
 19 57  1  0
 19 58  1  0
 20 21  2  0
 20 59  1  0
 21 29  1  0
 21 22  1  0
 22 23  2  0
 22 24  1  0
 24 25  1  0
 24 60  1  0
 24 61  1  0
 25 26  1  0
 25 29  1  0
 25 62  1  1
 26 28  1  0
 26 27  2  0
 27 28  1  0
 27 63  1  0
 28 64  1  0
 28 65  1  0
 29 30  1  6
 29 31  1  0
 30 66  1  0
 30 67  1  0
 30 68  1  0
 31 32  1  0
 31 69  1  1
 32 34  1  0
 32 33  1  0
 32 70  1  6
 33 34  1  0
 34 35  1  0
 34 71  1  1
 35 36  1  0
 35 72  1  0
 35 73  1  0
 36 74  1  1
M  END
>  <i_m_ct_stereo_status>  (235) 
1

>  <s_m_source_file>  (235) 
/var/tmp/pbs.5076255.sched01/tmppxy1xzy0/80exjuxwr6.sdf

>  <i_m_source_file_index>  (235) 
27

>  <i_lp_mmshare_version>  (235) 
48012

>  <i_f3d_flags>  (235) 
0

>  <s_epik_input>  (235) 
W0NIMl0xT0MoW0NIM10pKFtDSDNdKU9bQ0BAXTIoW09IXSlPW0NASF0oW0NASF0zW0NAQF0xMltDSDNdKVtDQEBIXShbT0hdKVtDQEBdNChbQ0gzXSlbQ0BIXTVbQ0BIXShbQ0BIXTZbQ0BASF0oTzYpW0NIMl1bQ0BASF0zNClbQ0BdNyhbQ0gzXSlDKD1bQ0hdW0NIMl01KUMoPU8pW0NIMl1bQ0BIXTdDOD1bQ0hdW0NIMl04

>  <s_epik_cmdline>  (235) 
J2VwaWtfcHl0aG9uJywgJy1waHQnLCAnMi4wJywgJy1waCcsICc3LjAnLCAnLXRuJywgJzgnLCAnLW1hJywgJzIwMCcsICctaW1hZScsICc8aW5maWxlLm1hZT4nLCAnLW9tYWUnLCAnPG91dGZpbGUubWFlPic=

>  <r_lp_tautomer_probability>  (235) 
1

>  <r_epik_Ionization_Penalty>  (235) 
0.000183765

>  <r_epik_Ionization_Penalty_Charging>  (235) 
0

>  <r_epik_Ionization_Penalty_Neutral>  (235) 
0.000183765

>  <r_epik_State_Penalty>  (235) 
-0

>  <r_epik_Charging_Adjusted_Penalty>  (235) 
0

>  <i_epik_Tot_Q>  (235) 
0

>  <i_epik_Tot_abs_Q>  (235) 
0

>  <s_lp_Force_Field>  (235) 
OPLS3e

>  <r_lp_Energy>  (235) 
70.5436

>  <b_lp_Chiralities_Consistent>  (235) 
1

>  <s_lp_Variant>  (235) 
76:0-1

>  <s_i_glide_gridfile>  (235) 
pfpi4k_grid

>  <i_i_glide_lignum>  (235) 
27

>  <i_i_glide_rotatable_bonds>  (235) 
3

>  <r_i_docking_score>  (235) 
-1.64271

>  <r_i_glide_ligand_efficiency>  (235) 
-0.0456309

>  <r_i_glide_ligand_efficiency_sa>  (235) 
-0.15067

>  <r_i_glide_ligand_efficiency_ln>  (235) 
-0.358395

>  <r_i_glide_gscore>  (235) 
-1.64271

>  <r_i_glide_lipo>  (235) 
-0.209717

>  <r_i_glide_hbond>  (235) 
0

>  <r_i_glide_metal>  (235) 
-0

>  <r_i_glide_rewards>  (235) 
-0.0597821

>  <r_i_glide_evdw>  (235) 
-27.8545

>  <r_i_glide_ecoul>  (235) 
-0.41247

>  <r_i_glide_erotb>  (235) 
0.0820852

>  <r_i_glide_esite>  (235) 
-0.000701038

>  <r_i_glide_emodel>  (235) 
-31.4763

>  <r_i_glide_energy>  (235) 
-28.267

>  <r_i_glide_einternal>  (235) 
0.239791

>  <r_i_glide_intrahb_reward>  (235) 
-0

>  <i_i_glide_confnum>  (235) 
3

>  <i_i_glide_posenum>  (235) 
2

>  <r_i_glide_eff_state_penalty>  (235) 
0

>  <ligand_id>  (235) 
76

>  <original_smiles>  (235) 
CC1(C)OCC2(C)C3C(OC2(O)O1)C(O)C1(C)C2CC=C4C(=O)CC(C5=CC5)C4(C)C2C2OC2CC31

>  <smiles>  (235) 
[H]OC12OC3([H])C([H])(O[H])C4(C([H])([H])[H])C5([H])C([H])([H])C([H])=C6C(=O)C([H])([H])C([H])(C7=C([H])C7([H])[H])C6(C([H])([H])[H])C5([H])C5([H])OC5([H])C([H])([H])C4([H])C3([H])C1(C([H])([H])[H])C([H])([H])OC(C([H])([H])[H])(C([H])([H])[H])O2

$$$$
77:0:0
     RDKit          3D

 38 41  0  0  1  0  0  0  0  0999 V2000
    2.4016   -3.9219   -0.4779 O   0  0  0  0  0  0  0  0  0  0  0  0
    3.6277   -3.8048   -0.3795 C   0  0  0  0  0  0  0  0  0  0  0  0
    4.4955   -3.0347   -1.1157 N   0  0  0  0  0  0  0  0  0  0  0  0
    5.8508   -3.1784   -0.6977 C   0  0  0  0  0  0  0  0  0  0  0  0
    6.9385   -2.5446   -1.1964 N   0  0  0  0  0  0  0  0  0  0  0  0
    8.0948   -2.8689   -0.6002 C   0  0  0  0  0  0  0  0  0  0  0  0
    8.2279   -3.7606    0.4769 C   0  0  0  0  0  0  0  0  0  0  0  0
    7.0787   -4.4008    0.9770 C   0  0  0  0  0  0  0  0  0  0  0  0
    5.8732   -4.0811    0.3441 C   0  0  0  0  0  0  0  0  0  0  0  0
    4.4820   -4.6047    0.6371 C   0  0  2  0  0  0  0  0  0  0  0  0
    4.2842   -6.0873    0.3917 C   0  0  0  0  0  0  0  0  0  0  0  0
    3.1905   -6.4554    1.2122 O   0  0  0  0  0  0  0  0  0  0  0  0
    2.8869   -5.4382    2.1691 C   0  0  1  0  0  0  0  0  0  0  0  0
    2.7014   -6.0854    3.5500 C   0  0  0  0  0  0  0  0  0  0  0  0
    1.4085   -6.6788    3.6432 O   0  0  0  0  0  0  0  0  0  0  0  0
    1.2711   -7.8677    2.8709 C   0  0  0  0  0  0  0  0  0  0  0  0
   -0.0965   -8.5351    2.9871 C   0  0  0  0  0  0  0  0  0  0  0  0
    0.6474   -9.8742    3.0588 C   0  0  0  0  0  0  0  0  0  0  0  0
    1.8854   -9.1052    3.5284 C   0  0  0  0  0  0  0  0  0  0  0  0
    4.0602   -4.4630    2.0833 C   0  0  0  0  0  0  0  0  0  0  0  0
    4.1871   -2.4609   -1.8947 H   0  0  0  0  0  0  0  0  0  0  0  0
    8.9602   -2.3739   -0.9918 H   0  0  0  0  0  0  0  0  0  0  0  0
    9.1739   -3.9486    0.9262 H   0  0  0  0  0  0  0  0  0  0  0  0
    7.1272   -5.0772    1.8113 H   0  0  0  0  0  0  0  0  0  0  0  0
    4.0787   -6.3171   -0.6613 H   0  0  0  0  0  0  0  0  0  0  0  0
    5.1767   -6.6588    0.6728 H   0  0  0  0  0  0  0  0  0  0  0  0
    1.9623   -4.9251    1.8860 H   0  0  0  0  0  0  0  0  0  0  0  0
    3.4882   -6.8173    3.7437 H   0  0  0  0  0  0  0  0  0  0  0  0
    2.7882   -5.3214    4.3285 H   0  0  0  0  0  0  0  0  0  0  0  0
    1.5266   -7.7738    1.8244 H   0  0  0  0  0  0  0  0  0  0  0  0
   -0.6253   -8.2796    3.9042 H   0  0  0  0  0  0  0  0  0  0  0  0
   -0.7158   -8.4082    2.0983 H   0  0  0  0  0  0  0  0  0  0  0  0
    0.2420  -10.5748    3.7859 H   0  0  0  0  0  0  0  0  0  0  0  0
    0.7878  -10.3355    2.0810 H   0  0  0  0  0  0  0  0  0  0  0  0
    2.8259   -9.4302    3.0811 H   0  0  0  0  0  0  0  0  0  0  0  0
    1.9569   -9.0269    4.6138 H   0  0  0  0  0  0  0  0  0  0  0  0
    4.8699   -4.8144    2.7294 H   0  0  0  0  0  0  0  0  0  0  0  0
    3.8023   -3.4576    2.3798 H   0  0  0  0  0  0  0  0  0  0  0  0
  1  2  2  0
  2 10  1  0
  2  3  1  0
  3  4  1  0
  3 21  1  0
  4  9  2  0
  4  5  1  0
  5  6  2  0
  6  7  1  0
  6 22  1  0
  7  8  2  0
  7 23  1  0
  8  9  1  0
  8 24  1  0
  9 10  1  0
 10 20  1  1
 10 11  1  0
 11 12  1  0
 11 25  1  0
 11 26  1  0
 12 13  1  0
 13 14  1  0
 13 20  1  0
 13 27  1  6
 14 15  1  0
 14 28  1  0
 14 29  1  0
 15 16  1  0
 16 19  1  0
 16 17  1  0
 16 30  1  0
 17 18  1  0
 17 31  1  0
 17 32  1  0
 18 19  1  0
 18 33  1  0
 18 34  1  0
 19 35  1  0
 19 36  1  0
 20 37  1  0
 20 38  1  0
M  END
>  <i_m_ct_stereo_status>  (236) 
1

>  <s_m_source_file>  (236) 
/var/tmp/pbs.5076255.sched01/tmppxy1xzy0/80exjuxwr6.sdf

>  <i_m_source_file_index>  (236) 
28

>  <i_lp_mmshare_version>  (236) 
48012

>  <i_f3d_flags>  (236) 
0

>  <s_epik_input>  (236) 
W2NIXTFbY0hdW2NIXW5jKFtOSF1DMj1PKWMxW0NAXTIzW0NIMl1PW0NASF0oW0NIMl0zKVtDSDJdT1tDSF00W0NIMl1bQ0gyXVtDSDJdNA==

>  <s_epik_cmdline>  (236) 
J2VwaWtfcHl0aG9uJywgJy1waHQnLCAnMi4wJywgJy1waCcsICc3LjAnLCAnLXRuJywgJzgnLCAnLW1hJywgJzIwMCcsICctaW1hZScsICc8aW5maWxlLm1hZT4nLCAnLW9tYWUnLCAnPG91dGZpbGUubWFlPic=

>  <r_lp_tautomer_probability>  (236) 
1

>  <r_epik_Ionization_Penalty>  (236) 
0.000829769

>  <r_epik_Ionization_Penalty_Charging>  (236) 
0

>  <r_epik_Ionization_Penalty_Neutral>  (236) 
0.000829769

>  <r_epik_State_Penalty>  (236) 
-0

>  <r_epik_Charging_Adjusted_Penalty>  (236) 
0

>  <i_epik_Tot_Q>  (236) 
0

>  <i_epik_Tot_abs_Q>  (236) 
0

>  <s_lp_Force_Field>  (236) 
OPLS3e

>  <r_lp_Energy>  (236) 
39.2961

>  <b_lp_Chiralities_Consistent>  (236) 
1

>  <s_lp_Variant>  (236) 
77:0-1

>  <s_i_glide_gridfile>  (236) 
pfpi4k_grid

>  <i_i_glide_lignum>  (236) 
28

>  <i_i_glide_rotatable_bonds>  (236) 
3

>  <r_i_docking_score>  (236) 
-2.95442

>  <r_i_glide_ligand_efficiency>  (236) 
-0.147721

>  <r_i_glide_ligand_efficiency_sa>  (236) 
-0.400976

>  <r_i_glide_ligand_efficiency_ln>  (236) 
-0.739393

>  <r_i_glide_gscore>  (236) 
-2.95442

>  <r_i_glide_lipo>  (236) 
-0.658349

>  <r_i_glide_hbond>  (236) 
-0.111103

>  <r_i_glide_metal>  (236) 
-0

>  <r_i_glide_rewards>  (236) 
-1.53876

>  <r_i_glide_evdw>  (236) 
-21.1021

>  <r_i_glide_ecoul>  (236) 
-1.99129

>  <r_i_glide_erotb>  (236) 
0.715815

>  <r_i_glide_esite>  (236) 
-0.00822294

>  <r_i_glide_emodel>  (236) 
-26.8362

>  <r_i_glide_energy>  (236) 
-23.0934

>  <r_i_glide_einternal>  (236) 
0.876717

>  <r_i_glide_intrahb_reward>  (236) 
-0

>  <i_i_glide_confnum>  (236) 
3

>  <i_i_glide_posenum>  (236) 
35

>  <r_i_glide_eff_state_penalty>  (236) 
0

>  <ligand_id>  (236) 
77

>  <original_smiles>  (236) 
O=C1Nc2ncccc2C12COC(COC1CCC1)C2

>  <smiles>  (236) 
[H]c1nc2c(c([H])c1[H])C1(C(=O)N2[H])C([H])([H])OC([H])(C([H])([H])OC2([H])C([H])([H])C([H])([H])C2([H])[H])C1([H])[H]

$$$$
77:0:1
     RDKit          3D

 38 41  0  0  1  0  0  0  0  0999 V2000
    2.7256   -3.3772   -1.0704 O   0  0  0  0  0  0  0  0  0  0  0  0
    3.9561   -3.2952   -0.7687 C   0  0  0  0  0  0  0  0  0  0  0  0
    4.9777   -2.5737   -1.2836 N   0  0  0  0  0  0  0  0  0  0  0  0
    6.2417   -2.8364   -0.6621 C   0  0  0  0  0  0  0  0  0  0  0  0
    7.4188   -2.2689   -0.9376 N   0  0  0  0  0  0  0  0  0  0  0  0
    8.4365   -2.7018   -0.1837 C   0  0  0  0  0  0  0  0  0  0  0  0
    8.3264   -3.6607    0.8481 C   0  0  0  0  0  0  0  0  0  0  0  0
    7.0663   -4.2256    1.1132 C   0  0  0  0  0  0  0  0  0  0  0  0
    6.0049   -3.7872    0.3103 C   0  0  0  0  0  0  0  0  0  0  0  0
    4.5474   -4.2034    0.3496 C   0  0  2  0  0  0  0  0  0  0  0  0
    4.2834   -5.6467   -0.0114 C   0  0  0  0  0  0  0  0  0  0  0  0
    3.0265   -5.9725    0.5888 O   0  0  0  0  0  0  0  0  0  0  0  0
    2.6603   -4.9667    1.5320 C   0  0  1  0  0  0  0  0  0  0  0  0
    2.1981   -5.6446    2.8296 C   0  0  0  0  0  0  0  0  0  0  0  0
    0.8035   -5.9150    2.7351 O   0  0  0  0  0  0  0  0  0  0  0  0
    0.3249   -6.7158    3.7989 C   0  0  0  0  0  0  0  0  0  0  0  0
    0.6522   -8.2059    3.6472 C   0  0  0  0  0  0  0  0  0  0  0  0
   -0.7784   -8.5039    4.1034 C   0  0  0  0  0  0  0  0  0  0  0  0
   -1.1559   -7.0879    3.6570 C   0  0  0  0  0  0  0  0  0  0  0  0
    3.9071   -4.0924    1.6912 C   0  0  0  0  0  0  0  0  0  0  0  0
    4.8685   -1.9174   -2.0931 H   0  0  0  0  0  0  0  0  0  0  0  0
    9.3911   -2.2597   -0.3827 H   0  0  0  0  0  0  0  0  0  0  0  0
    9.1670   -3.9371    1.4358 H   0  0  0  0  0  0  0  0  0  0  0  0
    6.9265   -4.9313    1.9060 H   0  0  0  0  0  0  0  0  0  0  0  0
    4.2663   -5.7985   -1.0949 H   0  0  0  0  0  0  0  0  0  0  0  0
    5.0714   -6.2999    0.3801 H   0  0  0  0  0  0  0  0  0  0  0  0
    1.8419   -4.3648    1.1280 H   0  0  0  0  0  0  0  0  0  0  0  0
    2.7702   -6.5619    2.9864 H   0  0  0  0  0  0  0  0  0  0  0  0
    2.3848   -4.9952    3.6857 H   0  0  0  0  0  0  0  0  0  0  0  0
    0.5681   -6.3192    4.7827 H   0  0  0  0  0  0  0  0  0  0  0  0
    0.8366   -8.5074    2.6153 H   0  0  0  0  0  0  0  0  0  0  0  0
    1.4295   -8.5717    4.3183 H   0  0  0  0  0  0  0  0  0  0  0  0
   -1.2759   -9.3047    3.5573 H   0  0  0  0  0  0  0  0  0  0  0  0
   -0.8595   -8.6464    5.1812 H   0  0  0  0  0  0  0  0  0  0  0  0
   -1.8225   -6.5652    4.3403 H   0  0  0  0  0  0  0  0  0  0  0  0
   -1.5144   -7.0501    2.6290 H   0  0  0  0  0  0  0  0  0  0  0  0
    4.5699   -4.5327    2.4403 H   0  0  0  0  0  0  0  0  0  0  0  0
    3.6744   -3.0837    1.9973 H   0  0  0  0  0  0  0  0  0  0  0  0
  1  2  2  0
  2 10  1  0
  2  3  1  0
  3  4  1  0
  3 21  1  0
  4  9  2  0
  4  5  1  0
  5  6  2  0
  6  7  1  0
  6 22  1  0
  7  8  2  0
  7 23  1  0
  8  9  1  0
  8 24  1  0
  9 10  1  0
 10 20  1  1
 10 11  1  0
 11 12  1  0
 11 25  1  0
 11 26  1  0
 12 13  1  0
 13 14  1  0
 13 20  1  0
 13 27  1  6
 14 15  1  0
 14 28  1  0
 14 29  1  0
 15 16  1  0
 16 19  1  0
 16 17  1  0
 16 30  1  0
 17 18  1  0
 17 31  1  0
 17 32  1  0
 18 19  1  0
 18 33  1  0
 18 34  1  0
 19 35  1  0
 19 36  1  0
 20 37  1  0
 20 38  1  0
M  END
>  <i_m_ct_stereo_status>  (237) 
1

>  <s_m_source_file>  (237) 
/var/tmp/pbs.5076255.sched01/tmppxy1xzy0/80exjuxwr6.sdf

>  <i_m_source_file_index>  (237) 
28

>  <i_lp_mmshare_version>  (237) 
48012

>  <i_f3d_flags>  (237) 
0

>  <s_epik_input>  (237) 
W2NIXTFbY0hdW2NIXW5jKFtOSF1DMj1PKWMxW0NAXTIzW0NIMl1PW0NASF0oW0NIMl0zKVtDSDJdT1tDSF00W0NIMl1bQ0gyXVtDSDJdNA==

>  <s_epik_cmdline>  (237) 
J2VwaWtfcHl0aG9uJywgJy1waHQnLCAnMi4wJywgJy1waCcsICc3LjAnLCAnLXRuJywgJzgnLCAnLW1hJywgJzIwMCcsICctaW1hZScsICc8aW5maWxlLm1hZT4nLCAnLW9tYWUnLCAnPG91dGZpbGUubWFlPic=

>  <r_lp_tautomer_probability>  (237) 
1

>  <r_epik_Ionization_Penalty>  (237) 
0.000829769

>  <r_epik_Ionization_Penalty_Charging>  (237) 
0

>  <r_epik_Ionization_Penalty_Neutral>  (237) 
0.000829769

>  <r_epik_State_Penalty>  (237) 
-0

>  <r_epik_Charging_Adjusted_Penalty>  (237) 
0

>  <i_epik_Tot_Q>  (237) 
0

>  <i_epik_Tot_abs_Q>  (237) 
0

>  <s_lp_Force_Field>  (237) 
OPLS3e

>  <r_lp_Energy>  (237) 
39.2961

>  <b_lp_Chiralities_Consistent>  (237) 
1

>  <s_lp_Variant>  (237) 
77:0-1

>  <s_i_glide_gridfile>  (237) 
pfpi4k_grid

>  <i_i_glide_lignum>  (237) 
28

>  <i_i_glide_rotatable_bonds>  (237) 
3

>  <r_i_docking_score>  (237) 
-2.79516

>  <r_i_glide_ligand_efficiency>  (237) 
-0.139758

>  <r_i_glide_ligand_efficiency_sa>  (237) 
-0.379361

>  <r_i_glide_ligand_efficiency_ln>  (237) 
-0.699536

>  <r_i_glide_gscore>  (237) 
-2.79516

>  <r_i_glide_lipo>  (237) 
-0.351448

>  <r_i_glide_hbond>  (237) 
-0.169577

>  <r_i_glide_metal>  (237) 
-0

>  <r_i_glide_rewards>  (237) 
-1.58329

>  <r_i_glide_evdw>  (237) 
-19.4378

>  <r_i_glide_ecoul>  (237) 
-2.82565

>  <r_i_glide_erotb>  (237) 
0.715815

>  <r_i_glide_esite>  (237) 
-0.0109183

>  <r_i_glide_emodel>  (237) 
-26.1051

>  <r_i_glide_energy>  (237) 
-22.2635

>  <r_i_glide_einternal>  (237) 
0.600403

>  <r_i_glide_intrahb_reward>  (237) 
-0

>  <i_i_glide_confnum>  (237) 
3

>  <i_i_glide_posenum>  (237) 
1

>  <r_i_glide_eff_state_penalty>  (237) 
0

>  <ligand_id>  (237) 
77

>  <original_smiles>  (237) 
O=C1Nc2ncccc2C12COC(COC1CCC1)C2

>  <smiles>  (237) 
[H]c1nc2c(c([H])c1[H])C1(C(=O)N2[H])C([H])([H])OC([H])(C([H])([H])OC2([H])C([H])([H])C([H])([H])C2([H])[H])C1([H])[H]

$$$$
77:0:2
     RDKit          3D

 38 41  0  0  1  0  0  0  0  0999 V2000
   -1.3009   -1.8458    5.7968 O   0  0  0  0  0  0  0  0  0  0  0  0
   -0.4218   -1.4519    4.9726 C   0  0  0  0  0  0  0  0  0  0  0  0
    0.3298   -2.1671    4.1701 N   0  0  0  0  0  0  0  0  0  0  0  0
    1.2359   -1.3758    3.4011 C   0  0  0  0  0  0  0  0  0  0  0  0
    2.1264   -1.7550    2.4733 N   0  0  0  0  0  0  0  0  0  0  0  0
    2.8363   -0.7646    1.8784 C   0  0  0  0  0  0  0  0  0  0  0  0
    2.6859    0.6016    2.1864 C   0  0  0  0  0  0  0  0  0  0  0  0
    1.7505    0.9857    3.1597 C   0  0  0  0  0  0  0  0  0  0  0  0
    1.0216   -0.0499    3.7792 C   0  0  0  0  0  0  0  0  0  0  0  0
   -0.0394    0.0311    4.8585 C   0  0  2  0  0  0  0  0  0  0  0  0
    0.4538    0.5299    6.2033 C   0  0  0  0  0  0  0  0  0  0  0  0
   -0.7122    1.0372    6.8432 O   0  0  0  0  0  0  0  0  0  0  0  0
   -1.7883    1.2067    5.9179 C   0  0  1  0  0  0  0  0  0  0  0  0
   -2.4144    2.5905    6.0985 C   0  0  0  0  0  0  0  0  0  0  0  0
   -3.2425    2.6075    7.2572 O   0  0  0  0  0  0  0  0  0  0  0  0
   -2.5126    2.8205    8.4569 C   0  0  0  0  0  0  0  0  0  0  0  0
   -3.3936    2.9937    9.6945 C   0  0  0  0  0  0  0  0  0  0  0  0
   -2.4733    4.1488   10.1059 C   0  0  0  0  0  0  0  0  0  0  0  0
   -2.0588    4.2722    8.6389 C   0  0  0  0  0  0  0  0  0  0  0  0
   -1.1542    0.9902    4.5479 C   0  0  0  0  0  0  0  0  0  0  0  0
    0.3344   -3.1822    4.0813 H   0  0  0  0  0  0  0  0  0  0  0  0
    3.5532   -1.0675    1.1430 H   0  0  0  0  0  0  0  0  0  0  0  0
    3.2794    1.3443    1.6839 H   0  0  0  0  0  0  0  0  0  0  0  0
    1.6006    2.0172    3.4165 H   0  0  0  0  0  0  0  0  0  0  0  0
    0.9029   -0.2624    6.8044 H   0  0  0  0  0  0  0  0  0  0  0  0
    1.1929    1.3176    6.0679 H   0  0  0  0  0  0  0  0  0  0  0  0
   -2.5452    0.4403    6.0975 H   0  0  0  0  0  0  0  0  0  0  0  0
   -1.6392    3.3556    6.1479 H   0  0  0  0  0  0  0  0  0  0  0  0
   -3.0306    2.8299    5.2291 H   0  0  0  0  0  0  0  0  0  0  0  0
   -1.7144    2.1065    8.6437 H   0  0  0  0  0  0  0  0  0  0  0  0
   -4.4068    3.3192    9.4577 H   0  0  0  0  0  0  0  0  0  0  0  0
   -3.3847    2.1482   10.3789 H   0  0  0  0  0  0  0  0  0  0  0  0
   -2.9841    5.0227   10.5043 H   0  0  0  0  0  0  0  0  0  0  0  0
   -1.6541    3.8301   10.7523 H   0  0  0  0  0  0  0  0  0  0  0  0
   -0.9939    4.4387    8.4739 H   0  0  0  0  0  0  0  0  0  0  0  0
   -2.6725    4.9806    8.0822 H   0  0  0  0  0  0  0  0  0  0  0  0
   -0.7162    1.9200    4.1821 H   0  0  0  0  0  0  0  0  0  0  0  0
   -1.8516    0.6225    3.7977 H   0  0  0  0  0  0  0  0  0  0  0  0
  1  2  2  0
  2 10  1  0
  2  3  1  0
  3  4  1  0
  3 21  1  0
  4  9  2  0
  4  5  1  0
  5  6  2  0
  6  7  1  0
  6 22  1  0
  7  8  2  0
  7 23  1  0
  8  9  1  0
  8 24  1  0
  9 10  1  0
 10 20  1  6
 10 11  1  0
 11 12  1  0
 11 25  1  0
 11 26  1  0
 12 13  1  0
 13 14  1  0
 13 20  1  0
 13 27  1  1
 14 15  1  0
 14 28  1  0
 14 29  1  0
 15 16  1  0
 16 19  1  0
 16 17  1  0
 16 30  1  0
 17 18  1  0
 17 31  1  0
 17 32  1  0
 18 19  1  0
 18 33  1  0
 18 34  1  0
 19 35  1  0
 19 36  1  0
 20 37  1  0
 20 38  1  0
M  END
>  <i_m_ct_stereo_status>  (238) 
1

>  <s_m_source_file>  (238) 
/var/tmp/pbs.5076255.sched01/tmppxy1xzy0/80exjuxwr6.sdf

>  <i_m_source_file_index>  (238) 
28

>  <i_lp_mmshare_version>  (238) 
48012

>  <i_f3d_flags>  (238) 
0

>  <s_epik_input>  (238) 
W2NIXTFbY0hdW2NIXW5jKFtOSF1DMj1PKWMxW0NAXTIzW0NIMl1PW0NASF0oW0NIMl0zKVtDSDJdT1tDSF00W0NIMl1bQ0gyXVtDSDJdNA==

>  <s_epik_cmdline>  (238) 
J2VwaWtfcHl0aG9uJywgJy1waHQnLCAnMi4wJywgJy1waCcsICc3LjAnLCAnLXRuJywgJzgnLCAnLW1hJywgJzIwMCcsICctaW1hZScsICc8aW5maWxlLm1hZT4nLCAnLW9tYWUnLCAnPG91dGZpbGUubWFlPic=

>  <r_lp_tautomer_probability>  (238) 
1

>  <r_epik_Ionization_Penalty>  (238) 
0.000829769

>  <r_epik_Ionization_Penalty_Charging>  (238) 
0

>  <r_epik_Ionization_Penalty_Neutral>  (238) 
0.000829769

>  <r_epik_State_Penalty>  (238) 
-0

>  <r_epik_Charging_Adjusted_Penalty>  (238) 
0

>  <i_epik_Tot_Q>  (238) 
0

>  <i_epik_Tot_abs_Q>  (238) 
0

>  <s_lp_Force_Field>  (238) 
OPLS3e

>  <r_lp_Energy>  (238) 
39.2961

>  <b_lp_Chiralities_Consistent>  (238) 
1

>  <s_lp_Variant>  (238) 
77:0-1

>  <s_i_glide_gridfile>  (238) 
pfpi4k_grid

>  <i_i_glide_lignum>  (238) 
28

>  <i_i_glide_rotatable_bonds>  (238) 
3

>  <r_i_docking_score>  (238) 
-2.7131

>  <r_i_glide_ligand_efficiency>  (238) 
-0.135655

>  <r_i_glide_ligand_efficiency_sa>  (238) 
-0.368224

>  <r_i_glide_ligand_efficiency_ln>  (238) 
-0.678999

>  <r_i_glide_gscore>  (238) 
-2.7131

>  <r_i_glide_lipo>  (238) 
-0.168709

>  <r_i_glide_hbond>  (238) 
0

>  <r_i_glide_metal>  (238) 
-0

>  <r_i_glide_rewards>  (238) 
-1.53876

>  <r_i_glide_evdw>  (238) 
-20.8926

>  <r_i_glide_ecoul>  (238) 
-4.36467

>  <r_i_glide_erotb>  (238) 
0.715815

>  <r_i_glide_esite>  (238) 
-0.022111

>  <r_i_glide_emodel>  (238) 
-28.7118

>  <r_i_glide_energy>  (238) 
-25.2573

>  <r_i_glide_einternal>  (238) 
1.25912

>  <r_i_glide_intrahb_reward>  (238) 
-0

>  <i_i_glide_confnum>  (238) 
4

>  <i_i_glide_posenum>  (238) 
15

>  <r_i_glide_eff_state_penalty>  (238) 
0

>  <ligand_id>  (238) 
77

>  <original_smiles>  (238) 
O=C1Nc2ncccc2C12COC(COC1CCC1)C2

>  <smiles>  (238) 
[H]c1nc2c(c([H])c1[H])C1(C(=O)N2[H])C([H])([H])OC([H])(C([H])([H])OC2([H])C([H])([H])C([H])([H])C2([H])[H])C1([H])[H]

$$$$
78:0:0
     RDKit          3D

 43 47  0  0  1  0  0  0  0  0999 V2000
    4.5038   -9.6236    2.0989 C   0  0  0  0  0  0  0  0  0  0  0  0
    2.9653   -9.4227    2.1434 C   0  0  0  0  0  0  0  0  0  0  0  0
    2.4838   -7.9936    2.5489 C   0  0  1  0  0  0  0  0  0  0  0  0
    3.5075   -7.1805    1.9634 O   0  0  0  0  0  0  0  0  0  0  0  0
    3.4157   -5.8012    1.8793 C   0  0  0  0  0  0  0  0  0  0  0  0
    2.7047   -4.9263    2.8890 C   0  0  1  0  0  0  0  0  0  0  0  0
    3.1492   -3.5604    2.3551 C   0  0  0  0  0  0  0  0  0  0  0  0
    2.7932   -2.4971    2.8602 O   0  0  0  0  0  0  0  0  0  0  0  0
    3.9640   -3.6997    1.2819 N   0  0  0  0  0  0  0  0  0  0  0  0
    4.5226   -2.5771    0.5121 C   0  0  0  0  0  0  0  0  0  0  0  0
    5.6711   -1.8711    1.2584 C   0  0  0  0  0  0  0  0  0  0  0  0
    6.2135   -0.8341    0.4669 O   0  0  0  0  0  0  0  0  0  0  0  0
    4.1490   -5.0647    1.0085 C   0  0  0  0  0  0  0  0  0  0  0  0
    4.9759   -5.2287    0.0765 O   0  0  0  0  0  0  0  0  0  0  0  0
    1.1868   -5.1112    2.9171 C   0  0  1  0  0  0  0  0  0  0  0  0
    0.6143   -6.2801    2.2032 C   0  0  1  0  0  0  0  0  0  0  0  0
    1.1089   -7.6616    1.8679 C   0  0  2  0  0  0  0  0  0  0  0  0
   -0.1081   -8.5698    2.2480 C   0  0  0  0  0  0  0  0  0  0  0  0
   -0.9373   -8.0781    3.4834 C   0  0  0  0  0  0  0  0  0  0  0  0
   -0.8171   -6.6593    3.7422 O   0  0  0  0  0  0  0  0  0  0  0  0
    0.5385   -6.2172    3.7296 C   0  0  2  0  0  0  0  0  0  0  0  0
    1.4338   -7.0056    4.6161 C   0  0  0  0  0  0  0  0  0  0  0  0
    2.3775   -7.7874    4.0696 C   0  0  0  0  0  0  0  0  0  0  0  0
    3.4713   -8.6856    5.0576 Cl  0  0  0  0  0  0  0  0  0  0  0  0
    4.7621  -10.6645    1.9203 H   0  0  0  0  0  0  0  0  0  0  0  0
    5.0019   -9.3410    3.0221 H   0  0  0  0  0  0  0  0  0  0  0  0
    4.9716   -9.0370    1.3061 H   0  0  0  0  0  0  0  0  0  0  0  0
    2.5992   -9.6592    1.1412 H   0  0  0  0  0  0  0  0  0  0  0  0
    2.5110  -10.1742    2.7955 H   0  0  0  0  0  0  0  0  0  0  0  0
    3.1119   -5.0448    3.9032 H   0  0  0  0  0  0  0  0  0  0  0  0
    3.7149   -1.8696    0.2942 H   0  0  0  0  0  0  0  0  0  0  0  0
    4.8745   -2.8832   -0.4757 H   0  0  0  0  0  0  0  0  0  0  0  0
    5.3067   -1.4463    2.1882 H   0  0  0  0  0  0  0  0  0  0  0  0
    6.4530   -2.5837    1.5149 H   0  0  0  0  0  0  0  0  0  0  0  0
    6.8192   -0.3393    1.0000 H   0  0  0  0  0  0  0  0  0  0  0  0
    0.6198   -4.1912    2.8956 H   0  0  0  0  0  0  0  0  0  0  0  0
   -0.2543   -6.0118    1.6122 H   0  0  0  0  0  0  0  0  0  0  0  0
    1.2425   -7.7146    0.7883 H   0  0  0  0  0  0  0  0  0  0  0  0
   -0.7971   -8.5824    1.3970 H   0  0  0  0  0  0  0  0  0  0  0  0
    0.2059   -9.6005    2.3948 H   0  0  0  0  0  0  0  0  0  0  0  0
   -1.9899   -8.3053    3.3185 H   0  0  0  0  0  0  0  0  0  0  0  0
   -0.6594   -8.6382    4.3770 H   0  0  0  0  0  0  0  0  0  0  0  0
    1.3469   -6.8848    5.6855 H   0  0  0  0  0  0  0  0  0  0  0  0
  1  2  1  0
  1 25  1  0
  1 26  1  0
  1 27  1  0
  3  2  1  1
  2 28  1  0
  2 29  1  0
  3 17  1  0
  3 23  1  0
  3  4  1  0
  4  5  1  0
  5  6  1  0
  5 13  2  0
  6 15  1  0
  6 30  1  1
  6  7  1  0
  7  9  1  0
  7  8  2  0
  9 13  1  0
  9 10  1  0
 10 11  1  0
 10 31  1  0
 10 32  1  0
 11 12  1  0
 11 33  1  0
 11 34  1  0
 12 35  1  0
 13 14  1  0
 15 21  1  0
 15 16  1  0
 15 36  1  6
 16 21  1  0
 16 17  1  0
 16 37  1  6
 17 18  1  0
 17 38  1  6
 18 19  1  0
 18 39  1  0
 18 40  1  0
 19 20  1  0
 19 41  1  0
 19 42  1  0
 21 20  1  6
 21 22  1  0
 22 23  2  0
 22 43  1  0
 23 24  1  0
M  CHG  1  14  -1
M  END
>  <i_m_ct_stereo_status>  (239) 
1

>  <s_m_source_file>  (239) 
/var/tmp/pbs.5076255.sched01/tmppxy1xzy0/80exjuxwr6.sdf

>  <i_m_source_file_index>  (239) 
29

>  <i_lp_mmshare_version>  (239) 
48012

>  <i_f3d_flags>  (239) 
3

>  <s_epik_input>  (239) 
TzFbQ0gyXVtDSDJdW0NAQEhdKFtDQEBIXTIzKVtDQF0oW0NIMl1bQ0gzXSkoQyhDbCk9W0NIXTQpT2MoYzVbQ0hdMkMxMzQpYyhbT0hdKW4oYzVbT0hdKVtDSDJdW0NIMl1bT0hd

>  <s_epik_cmdline>  (239) 
J2VwaWtfcHl0aG9uJywgJy1waHQnLCAnMi4wJywgJy1waCcsICc3LjAnLCAnLXRuJywgJzgnLCAnLW1hJywgJzIwMCcsICctaW1hZScsICc8aW5maWxlLm1hZT4nLCAnLW9tYWUnLCAnPG91dGZpbGUubWFlPic=

>  <r_lp_tautomer_probability>  (239) 
1

>  <r_epik_Ionization_Penalty>  (239) 
0.0132101

>  <r_epik_Ionization_Penalty_Charging>  (239) 
0.01321

>  <r_epik_Ionization_Penalty_Neutral>  (239) 
1.14351e-07

>  <r_epik_State_Penalty>  (239) 
0.0102685

>  <r_epik_Charging_Adjusted_Penalty>  (239) 
0.0234785

>  <i_epik_Tot_Q>  (239) 
-1

>  <i_epik_Tot_abs_Q>  (239) 
1

>  <s_lp_Force_Field>  (239) 
OPLS3e

>  <r_lp_Energy>  (239) 
55.3961

>  <b_lp_Chiralities_Consistent>  (239) 
0

>  <s_lp_Variant>  (239) 
78:0-1

>  <s_i_glide_gridfile>  (239) 
pfpi4k_grid

>  <i_i_glide_lignum>  (239) 
29

>  <i_i_glide_rotatable_bonds>  (239) 
4

>  <r_i_docking_score>  (239) 
-2.46814

>  <r_i_glide_ligand_efficiency>  (239) 
-0.102839

>  <r_i_glide_ligand_efficiency_sa>  (239) 
-0.296639

>  <r_i_glide_ligand_efficiency_ln>  (239) 
-0.590739

>  <r_i_glide_gscore>  (239) 
-2.46814

>  <r_i_glide_lipo>  (239) 
-0.163952

>  <r_i_glide_hbond>  (239) 
-0.359292

>  <r_i_glide_metal>  (239) 
-0

>  <r_i_glide_rewards>  (239) 
-1.01795

>  <r_i_glide_evdw>  (239) 
-19.1928

>  <r_i_glide_ecoul>  (239) 
-1.82705

>  <r_i_glide_erotb>  (239) 
0.30675

>  <r_i_glide_esite>  (239) 
0

>  <r_i_glide_emodel>  (239) 
-23.2137

>  <r_i_glide_energy>  (239) 
-21.0198

>  <r_i_glide_einternal>  (239) 
3.79887

>  <r_i_glide_intrahb_reward>  (239) 
-0

>  <i_i_glide_confnum>  (239) 
1

>  <i_i_glide_posenum>  (239) 
3

>  <r_i_glide_eff_state_penalty>  (239) 
0

>  <ligand_id>  (239) 
78

>  <original_smiles>  (239) 
CCC12Oc3c(c(O)n(CCO)c3O)C3C4C1CCOC34C=C2Cl

>  <smiles>  (239) 
[H]OC([H])([H])C([H])([H])N1C(=O)C2([H])C(=C1[O-])OC1(C([H])([H])C([H])([H])[H])C(Cl)=C([H])C34OC([H])([H])C([H])([H])C1([H])C3([H])C24[H]

$$$$
78:0:1
     RDKit          3D

 43 47  0  0  1  0  0  0  0  0999 V2000
    4.2060  -10.0877    2.5975 C   0  0  0  0  0  0  0  0  0  0  0  0
    2.6666   -9.9044    2.6792 C   0  0  0  0  0  0  0  0  0  0  0  0
    2.1634   -8.4650    3.0152 C   0  0  1  0  0  0  0  0  0  0  0  0
    3.1500   -7.6619    2.3473 O   0  0  0  0  0  0  0  0  0  0  0  0
    3.0169   -6.3007    2.1680 C   0  0  0  0  0  0  0  0  0  0  0  0
    2.3208   -5.3857    3.1584 C   0  0  1  0  0  0  0  0  0  0  0  0
    2.6918   -4.0424    2.5236 C   0  0  0  0  0  0  0  0  0  0  0  0
    2.3357   -2.9622    2.9862 O   0  0  0  0  0  0  0  0  0  0  0  0
    3.4524   -4.2261    1.4262 N   0  0  0  0  0  0  0  0  0  0  0  0
    4.0120   -3.1440    0.5951 C   0  0  0  0  0  0  0  0  0  0  0  0
    3.3140   -3.0447   -0.7778 C   0  0  0  0  0  0  0  0  0  0  0  0
    3.4124   -1.7320   -1.2798 O   0  0  0  0  0  0  0  0  0  0  0  0
    3.6861   -5.5778    1.2247 C   0  0  0  0  0  0  0  0  0  0  0  0
    4.4833   -5.7673    0.2703 O   0  0  0  0  0  0  0  0  0  0  0  0
    0.8110   -5.6013    3.2649 C   0  0  1  0  0  0  0  0  0  0  0  0
    0.2417   -6.8168    2.6361 C   0  0  1  0  0  0  0  0  0  0  0  0
    0.7609   -8.2049    2.3642 C   0  0  2  0  0  0  0  0  0  0  0  0
   -0.4195   -9.1187    2.8378 C   0  0  0  0  0  0  0  0  0  0  0  0
   -1.2154   -8.5676    4.0725 C   0  0  0  0  0  0  0  0  0  0  0  0
   -1.1231   -7.1357    4.2501 O   0  0  0  0  0  0  0  0  0  0  0  0
    0.2174   -6.6672    4.1616 C   0  0  2  0  0  0  0  0  0  0  0  0
    1.1654   -7.3768    5.0590 C   0  0  0  0  0  0  0  0  0  0  0  0
    2.1046   -8.1692    4.5248 C   0  0  0  0  0  0  0  0  0  0  0  0
    3.2514   -8.9829    5.5291 Cl  0  0  0  0  0  0  0  0  0  0  0  0
    4.4725  -11.1363    2.4690 H   0  0  0  0  0  0  0  0  0  0  0  0
    4.7302   -9.7438    3.4854 H   0  0  0  0  0  0  0  0  0  0  0  0
    4.6383   -9.5343    1.7610 H   0  0  0  0  0  0  0  0  0  0  0  0
    2.2817  -10.1963    1.6996 H   0  0  0  0  0  0  0  0  0  0  0  0
    2.2408  -10.6279    3.3816 H   0  0  0  0  0  0  0  0  0  0  0  0
    2.7672   -5.4247    4.1638 H   0  0  0  0  0  0  0  0  0  0  0  0
    5.0955   -3.2677    0.4688 H   0  0  0  0  0  0  0  0  0  0  0  0
    3.8986   -2.1967    1.1278 H   0  0  0  0  0  0  0  0  0  0  0  0
    3.7560   -3.7429   -1.4823 H   0  0  0  0  0  0  0  0  0  0  0  0
    2.2579   -3.3022   -0.7051 H   0  0  0  0  0  0  0  0  0  0  0  0
    2.5538   -1.3188   -1.1205 H   0  0  0  0  0  0  0  0  0  0  0  0
    0.2273   -4.6943    3.2375 H   0  0  0  0  0  0  0  0  0  0  0  0
   -0.6549   -6.6016    2.0640 H   0  0  0  0  0  0  0  0  0  0  0  0
    0.8690   -8.3064    1.2855 H   0  0  0  0  0  0  0  0  0  0  0  0
   -1.1267   -9.2089    2.0051 H   0  0  0  0  0  0  0  0  0  0  0  0
   -0.0750  -10.1276    3.0453 H   0  0  0  0  0  0  0  0  0  0  0  0
   -2.2656   -8.8266    3.9639 H   0  0  0  0  0  0  0  0  0  0  0  0
   -0.8896   -9.0597    4.9896 H   0  0  0  0  0  0  0  0  0  0  0  0
    1.1070   -7.1935    6.1228 H   0  0  0  0  0  0  0  0  0  0  0  0
  1  2  1  0
  1 25  1  0
  1 26  1  0
  1 27  1  0
  3  2  1  1
  2 28  1  0
  2 29  1  0
  3 17  1  0
  3 23  1  0
  3  4  1  0
  4  5  1  0
  5  6  1  0
  5 13  2  0
  6 15  1  0
  6 30  1  1
  6  7  1  0
  7  9  1  0
  7  8  2  0
  9 13  1  0
  9 10  1  0
 10 11  1  0
 10 31  1  0
 10 32  1  0
 11 12  1  0
 11 33  1  0
 11 34  1  0
 12 35  1  0
 13 14  1  0
 15 21  1  0
 15 16  1  0
 15 36  1  6
 16 21  1  0
 16 17  1  0
 16 37  1  6
 17 18  1  0
 17 38  1  6
 18 19  1  0
 18 39  1  0
 18 40  1  0
 19 20  1  0
 19 41  1  0
 19 42  1  0
 21 20  1  1
 21 22  1  0
 22 23  2  0
 22 43  1  0
 23 24  1  0
M  CHG  1  14  -1
M  END
>  <i_m_ct_stereo_status>  (240) 
1

>  <s_m_source_file>  (240) 
/var/tmp/pbs.5076255.sched01/tmppxy1xzy0/80exjuxwr6.sdf

>  <i_m_source_file_index>  (240) 
29

>  <i_lp_mmshare_version>  (240) 
48012

>  <i_f3d_flags>  (240) 
3

>  <s_epik_input>  (240) 
TzFbQ0gyXVtDSDJdW0NAQEhdKFtDQEBIXTIzKVtDQF0oW0NIMl1bQ0gzXSkoQyhDbCk9W0NIXTQpT2MoYzVbQ0hdMkMxMzQpYyhbT0hdKW4oYzVbT0hdKVtDSDJdW0NIMl1bT0hd

>  <s_epik_cmdline>  (240) 
J2VwaWtfcHl0aG9uJywgJy1waHQnLCAnMi4wJywgJy1waCcsICc3LjAnLCAnLXRuJywgJzgnLCAnLW1hJywgJzIwMCcsICctaW1hZScsICc8aW5maWxlLm1hZT4nLCAnLW9tYWUnLCAnPG91dGZpbGUubWFlPic=

>  <r_lp_tautomer_probability>  (240) 
1

>  <r_epik_Ionization_Penalty>  (240) 
0.0132101

>  <r_epik_Ionization_Penalty_Charging>  (240) 
0.01321

>  <r_epik_Ionization_Penalty_Neutral>  (240) 
1.14351e-07

>  <r_epik_State_Penalty>  (240) 
0.0102685

>  <r_epik_Charging_Adjusted_Penalty>  (240) 
0.0234785

>  <i_epik_Tot_Q>  (240) 
-1

>  <i_epik_Tot_abs_Q>  (240) 
1

>  <s_lp_Force_Field>  (240) 
OPLS3e

>  <r_lp_Energy>  (240) 
55.3961

>  <b_lp_Chiralities_Consistent>  (240) 
0

>  <s_lp_Variant>  (240) 
78:0-1

>  <s_i_glide_gridfile>  (240) 
pfpi4k_grid

>  <i_i_glide_lignum>  (240) 
29

>  <i_i_glide_rotatable_bonds>  (240) 
4

>  <r_i_docking_score>  (240) 
-2.35719

>  <r_i_glide_ligand_efficiency>  (240) 
-0.0982164

>  <r_i_glide_ligand_efficiency_sa>  (240) 
-0.283305

>  <r_i_glide_ligand_efficiency_ln>  (240) 
-0.564185

>  <r_i_glide_gscore>  (240) 
-2.35719

>  <r_i_glide_lipo>  (240) 
-0.0300367

>  <r_i_glide_hbond>  (240) 
-0.16

>  <r_i_glide_metal>  (240) 
-0

>  <r_i_glide_rewards>  (240) 
-1.01135

>  <r_i_glide_evdw>  (240) 
-20.2423

>  <r_i_glide_ecoul>  (240) 
-2.98052

>  <r_i_glide_erotb>  (240) 
0.30675

>  <r_i_glide_esite>  (240) 
-0.00336556

>  <r_i_glide_emodel>  (240) 
-23.8442

>  <r_i_glide_energy>  (240) 
-23.2228

>  <r_i_glide_einternal>  (240) 
5.35828

>  <r_i_glide_intrahb_reward>  (240) 
-0

>  <i_i_glide_confnum>  (240) 
2

>  <i_i_glide_posenum>  (240) 
15

>  <r_i_glide_eff_state_penalty>  (240) 
0

>  <ligand_id>  (240) 
78

>  <original_smiles>  (240) 
CCC12Oc3c(c(O)n(CCO)c3O)C3C4C1CCOC34C=C2Cl

>  <smiles>  (240) 
[H]OC([H])([H])C([H])([H])N1C(=O)C2([H])C(=C1[O-])OC1(C([H])([H])C([H])([H])[H])C(Cl)=C([H])C34OC([H])([H])C([H])([H])C1([H])C3([H])C24[H]

$$$$
78:0:2
     RDKit          3D

 43 47  0  0  1  0  0  0  0  0999 V2000
    2.1495  -11.1010    3.1510 C   0  0  0  0  0  0  0  0  0  0  0  0
    2.7381   -9.8953    2.3673 C   0  0  0  0  0  0  0  0  0  0  0  0
    2.2618   -8.4380    2.7063 C   0  0  1  0  0  0  0  0  0  0  0  0
    3.3265   -7.6590    2.0936 O   0  0  0  0  0  0  0  0  0  0  0  0
    3.2547   -6.2880    1.9120 C   0  0  0  0  0  0  0  0  0  0  0  0
    2.5835   -5.3534    2.8879 C   0  0  1  0  0  0  0  0  0  0  0  0
    3.0225   -4.0107    2.2852 C   0  0  0  0  0  0  0  0  0  0  0  0
    2.7054   -2.9128    2.7175 O   0  0  0  0  0  0  0  0  0  0  0  0
    3.7958   -4.2177    1.1912 N   0  0  0  0  0  0  0  0  0  0  0  0
    4.3613   -3.1522    0.3449 C   0  0  0  0  0  0  0  0  0  0  0  0
    5.6282   -2.5233    0.9467 C   0  0  0  0  0  0  0  0  0  0  0  0
    6.0848   -1.4534    0.1381 O   0  0  0  0  0  0  0  0  0  0  0  0
    3.9732   -5.5824    0.9893 C   0  0  0  0  0  0  0  0  0  0  0  0
    4.7791   -5.8405    0.0629 O   0  0  0  0  0  0  0  0  0  0  0  0
    1.0671   -5.4855    2.9666 C   0  0  1  0  0  0  0  0  0  0  0  0
    0.4492   -6.6734    2.3003 C   0  0  1  0  0  0  0  0  0  0  0  0
    0.8743   -8.0988    2.0293 C   0  0  2  0  0  0  0  0  0  0  0  0
   -0.3993   -8.9061    2.4473 C   0  0  0  0  0  0  0  0  0  0  0  0
   -1.1339   -8.3538    3.7105 C   0  0  0  0  0  0  0  0  0  0  0  0
   -0.9756   -6.9247    3.9270 O   0  0  0  0  0  0  0  0  0  0  0  0
    0.4031   -6.5355    3.8366 C   0  0  2  0  0  0  0  0  0  0  0  0
    1.3170   -7.3057    4.7411 C   0  0  0  0  0  0  0  0  0  0  0  0
    2.2249   -8.1394    4.2122 C   0  0  0  0  0  0  0  0  0  0  0  0
    3.4542   -8.8871    5.1886 Cl  0  0  0  0  0  0  0  0  0  0  0  0
    2.5763  -12.0271    2.7684 H   0  0  0  0  0  0  0  0  0  0  0  0
    1.0783  -11.2265    3.0768 H   0  0  0  0  0  0  0  0  0  0  0  0
    2.3732  -11.0382    4.2106 H   0  0  0  0  0  0  0  0  0  0  0  0
    3.8272   -9.9261    2.4821 H   0  0  0  0  0  0  0  0  0  0  0  0
    2.6099  -10.0360    1.2903 H   0  0  0  0  0  0  0  0  0  0  0  0
    2.9983   -5.4014    3.8903 H   0  0  0  0  0  0  0  0  0  0  0  0
    3.6019   -2.3932    0.2007 H   0  0  0  0  0  0  0  0  0  0  0  0
    4.5828   -3.5077   -0.6626 H   0  0  0  0  0  0  0  0  0  0  0  0
    5.4373   -2.1465    1.9524 H   0  0  0  0  0  0  0  0  0  0  0  0
    6.4231   -3.2670    1.0384 H   0  0  0  0  0  0  0  0  0  0  0  0
    5.3990   -0.7975    0.1049 H   0  0  0  0  0  0  0  0  0  0  0  0
    0.5184   -4.5482    2.8963 H   0  0  0  0  0  0  0  0  0  0  0  0
   -0.4304   -6.4036    1.7169 H   0  0  0  0  0  0  0  0  0  0  0  0
    1.0339   -8.1844    0.9544 H   0  0  0  0  0  0  0  0  0  0  0  0
   -1.0915   -8.8721    1.6094 H   0  0  0  0  0  0  0  0  0  0  0  0
   -0.2353   -9.9575    2.5986 H   0  0  0  0  0  0  0  0  0  0  0  0
   -2.1909   -8.5898    3.6099 H   0  0  0  0  0  0  0  0  0  0  0  0
   -0.8159   -8.8914    4.6092 H   0  0  0  0  0  0  0  0  0  0  0  0
    1.2726   -7.1228    5.8063 H   0  0  0  0  0  0  0  0  0  0  0  0
  1  2  1  0
  1 25  1  0
  1 26  1  0
  1 27  1  0
  3  2  1  1
  2 28  1  0
  2 29  1  0
  3 17  1  0
  3 23  1  0
  3  4  1  0
  4  5  1  0
  5  6  1  0
  5 13  2  0
  6 15  1  0
  6 30  1  1
  6  7  1  0
  7  9  1  0
  7  8  2  0
  9 13  1  0
  9 10  1  0
 10 11  1  0
 10 31  1  0
 10 32  1  0
 11 12  1  0
 11 33  1  0
 11 34  1  0
 12 35  1  0
 13 14  1  0
 15 21  1  0
 15 16  1  0
 15 36  1  6
 16 21  1  0
 16 17  1  0
 16 37  1  6
 17 18  1  0
 17 38  1  6
 18 19  1  0
 18 39  1  0
 18 40  1  0
 19 20  1  0
 19 41  1  0
 19 42  1  0
 21 20  1  1
 21 22  1  0
 22 23  2  0
 22 43  1  0
 23 24  1  0
M  CHG  1  14  -1
M  END
>  <i_m_ct_stereo_status>  (241) 
1

>  <s_m_source_file>  (241) 
/var/tmp/pbs.5076255.sched01/tmppxy1xzy0/80exjuxwr6.sdf

>  <i_m_source_file_index>  (241) 
29

>  <i_lp_mmshare_version>  (241) 
48012

>  <i_f3d_flags>  (241) 
3

>  <s_epik_input>  (241) 
TzFbQ0gyXVtDSDJdW0NAQEhdKFtDQEBIXTIzKVtDQF0oW0NIMl1bQ0gzXSkoQyhDbCk9W0NIXTQpT2MoYzVbQ0hdMkMxMzQpYyhbT0hdKW4oYzVbT0hdKVtDSDJdW0NIMl1bT0hd

>  <s_epik_cmdline>  (241) 
J2VwaWtfcHl0aG9uJywgJy1waHQnLCAnMi4wJywgJy1waCcsICc3LjAnLCAnLXRuJywgJzgnLCAnLW1hJywgJzIwMCcsICctaW1hZScsICc8aW5maWxlLm1hZT4nLCAnLW9tYWUnLCAnPG91dGZpbGUubWFlPic=

>  <r_lp_tautomer_probability>  (241) 
1

>  <r_epik_Ionization_Penalty>  (241) 
0.0132101

>  <r_epik_Ionization_Penalty_Charging>  (241) 
0.01321

>  <r_epik_Ionization_Penalty_Neutral>  (241) 
1.14351e-07

>  <r_epik_State_Penalty>  (241) 
0.0102685

>  <r_epik_Charging_Adjusted_Penalty>  (241) 
0.0234785

>  <i_epik_Tot_Q>  (241) 
-1

>  <i_epik_Tot_abs_Q>  (241) 
1

>  <s_lp_Force_Field>  (241) 
OPLS3e

>  <r_lp_Energy>  (241) 
55.3961

>  <b_lp_Chiralities_Consistent>  (241) 
0

>  <s_lp_Variant>  (241) 
78:0-1

>  <s_i_glide_gridfile>  (241) 
pfpi4k_grid

>  <i_i_glide_lignum>  (241) 
29

>  <i_i_glide_rotatable_bonds>  (241) 
4

>  <r_i_docking_score>  (241) 
-2.19904

>  <r_i_glide_ligand_efficiency>  (241) 
-0.0916266

>  <r_i_glide_ligand_efficiency_sa>  (241) 
-0.264297

>  <r_i_glide_ligand_efficiency_ln>  (241) 
-0.526331

>  <r_i_glide_gscore>  (241) 
-2.19904

>  <r_i_glide_lipo>  (241) 
-0.219113

>  <r_i_glide_hbond>  (241) 
-0.0235498

>  <r_i_glide_metal>  (241) 
-0

>  <r_i_glide_rewards>  (241) 
-1.01732

>  <r_i_glide_evdw>  (241) 
-21.0833

>  <r_i_glide_ecoul>  (241) 
-1.271

>  <r_i_glide_erotb>  (241) 
0.30675

>  <r_i_glide_esite>  (241) 
-0.000991321

>  <r_i_glide_emodel>  (241) 
-24.1547

>  <r_i_glide_energy>  (241) 
-22.3543

>  <r_i_glide_einternal>  (241) 
3.72592

>  <r_i_glide_intrahb_reward>  (241) 
-0

>  <i_i_glide_confnum>  (241) 
1

>  <i_i_glide_posenum>  (241) 
32

>  <r_i_glide_eff_state_penalty>  (241) 
0

>  <ligand_id>  (241) 
78

>  <original_smiles>  (241) 
CCC12Oc3c(c(O)n(CCO)c3O)C3C4C1CCOC34C=C2Cl

>  <smiles>  (241) 
[H]OC([H])([H])C([H])([H])N1C(=O)C2([H])C(=C1[O-])OC1(C([H])([H])C([H])([H])[H])C(Cl)=C([H])C34OC([H])([H])C([H])([H])C1([H])C3([H])C24[H]

$$$$
78:1:0
     RDKit          3D

 44 48  0  0  1  0  0  0  0  0999 V2000
    0.9985    6.0637    5.0053 C   0  0  0  0  0  0  0  0  0  0  0  0
    0.0913    5.4149    6.0804 C   0  0  0  0  0  0  0  0  0  0  0  0
   -0.0788    3.8712    5.9643 C   0  0  1  0  0  0  0  0  0  0  0  0
    1.2297    3.3720    5.6106 O   0  0  0  0  0  0  0  0  0  0  0  0
    1.2953    2.2533    4.8242 C   0  0  0  0  0  0  0  0  0  0  0  0
    1.0487    0.8840    5.3936 C   0  0  2  0  0  0  0  0  0  0  0  0
    1.0490    0.0636    4.0944 C   0  0  0  0  0  0  0  0  0  0  0  0
    0.7867   -1.1398    4.0591 O   0  0  0  0  0  0  0  0  0  0  0  0
    1.3830    0.8593    3.0551 N   0  0  0  0  0  0  0  0  0  0  0  0
    1.5624    0.4229    1.6633 C   0  0  0  0  0  0  0  0  0  0  0  0
    3.0116   -0.0203    1.3633 C   0  0  0  0  0  0  0  0  0  0  0  0
    3.0213   -1.1325    0.4863 O   0  0  0  0  0  0  0  0  0  0  0  0
    1.5350    2.1701    3.5140 C   0  0  0  0  0  0  0  0  0  0  0  0
    1.8140    3.1393    2.6373 O   0  0  0  0  0  0  0  0  0  0  0  0
   -0.1653    0.6872    6.2959 C   0  0  1  0  0  0  0  0  0  0  0  0
   -0.4487    1.7294    7.3125 C   0  0  1  0  0  0  0  0  0  0  0  0
   -0.3869    3.2336    7.3696 C   0  0  2  0  0  0  0  0  0  0  0  0
   -1.7415    3.6152    8.0525 C   0  0  0  0  0  0  0  0  0  0  0  0
   -2.9421    2.6571    7.7161 C   0  0  0  0  0  0  0  0  0  0  0  0
   -2.5526    1.3431    7.2508 O   0  0  0  0  0  0  0  0  0  0  0  0
   -1.5147    1.3860    6.2626 C   0  0  2  0  0  0  0  0  0  0  0  0
   -1.8360    2.2767    5.1181 C   0  0  0  0  0  0  0  0  0  0  0  0
   -1.1783    3.4335    4.9639 C   0  0  0  0  0  0  0  0  0  0  0  0
   -1.5928    4.5441    3.7024 Cl  0  0  0  0  0  0  0  0  0  0  0  0
    1.0048    7.1516    5.0937 H   0  0  0  0  0  0  0  0  0  0  0  0
    0.6975    5.8287    3.9870 H   0  0  0  0  0  0  0  0  0  0  0  0
    2.0292    5.7200    5.1031 H   0  0  0  0  0  0  0  0  0  0  0  0
    0.5333    5.6546    7.0468 H   0  0  0  0  0  0  0  0  0  0  0  0
   -0.8822    5.9043    6.0984 H   0  0  0  0  0  0  0  0  0  0  0  0
    1.9367    0.6268    5.9689 H   0  0  0  0  0  0  0  0  0  0  0  0
    1.2423    1.1873    0.9548 H   0  0  0  0  0  0  0  0  0  0  0  0
    0.8749   -0.4067    1.4960 H   0  0  0  0  0  0  0  0  0  0  0  0
    3.5751    0.7946    0.9135 H   0  0  0  0  0  0  0  0  0  0  0  0
    3.5527   -0.3100    2.2612 H   0  0  0  0  0  0  0  0  0  0  0  0
    2.2786   -1.0580   -0.1212 H   0  0  0  0  0  0  0  0  0  0  0  0
    1.3531    2.9632    1.8274 H   0  0  0  0  0  0  0  0  0  0  0  0
   -0.2406   -0.3341    6.6467 H   0  0  0  0  0  0  0  0  0  0  0  0
   -0.5177    1.2909    8.3062 H   0  0  0  0  0  0  0  0  0  0  0  0
    0.4222    3.5124    8.0490 H   0  0  0  0  0  0  0  0  0  0  0  0
   -1.5926    3.5720    9.1371 H   0  0  0  0  0  0  0  0  0  0  0  0
   -2.0193    4.6448    7.8393 H   0  0  0  0  0  0  0  0  0  0  0  0
   -3.5652    2.5447    8.6066 H   0  0  0  0  0  0  0  0  0  0  0  0
   -3.5913    3.1171    6.9714 H   0  0  0  0  0  0  0  0  0  0  0  0
   -2.6259    1.9779    4.4474 H   0  0  0  0  0  0  0  0  0  0  0  0
  1  2  1  0
  1 25  1  0
  1 26  1  0
  1 27  1  0
  3  2  1  1
  2 28  1  0
  2 29  1  0
  3 17  1  0
  3 23  1  0
  3  4  1  0
  4  5  1  0
  5  6  1  0
  5 13  2  0
  6 15  1  0
  6 30  1  1
  6  7  1  0
  7  9  1  0
  7  8  2  0
  9 13  1  0
  9 10  1  0
 10 11  1  0
 10 31  1  0
 10 32  1  0
 11 12  1  0
 11 33  1  0
 11 34  1  0
 12 35  1  0
 13 14  1  0
 14 36  1  0
 15 21  1  0
 15 16  1  0
 15 37  1  1
 16 21  1  0
 16 17  1  0
 16 38  1  1
 17 18  1  0
 17 39  1  1
 18 19  1  0
 18 40  1  0
 18 41  1  0
 19 20  1  0
 19 42  1  0
 19 43  1  0
 21 20  1  1
 21 22  1  0
 22 23  2  0
 22 44  1  0
 23 24  1  0
M  END
>  <i_m_ct_stereo_status>  (242) 
1

>  <s_m_source_file>  (242) 
/var/tmp/pbs.5076255.sched01/tmppxy1xzy0/80exjuxwr6.sdf

>  <i_m_source_file_index>  (242) 
30

>  <i_lp_mmshare_version>  (242) 
48012

>  <i_f3d_flags>  (242) 
3

>  <s_epik_input>  (242) 
TzFbQ0gyXVtDSDJdW0NAQEhdKFtDQEBIXTIzKVtDQF0oW0NIMl1bQ0gzXSkoQyhDbCk9W0NIXTQpT2MoYzVbQ0hdMkMxMzQpYyhbT0hdKW4oYzVbT0hdKVtDSDJdW0NIMl1bT0hd

>  <s_epik_cmdline>  (242) 
J2VwaWtfcHl0aG9uJywgJy1waHQnLCAnMi4wJywgJy1waCcsICc3LjAnLCAnLXRuJywgJzgnLCAnLW1hJywgJzIwMCcsICctaW1hZScsICc8aW5maWxlLm1hZT4nLCAnLW9tYWUnLCAnPG91dGZpbGUubWFlPic=

>  <r_lp_tautomer_probability>  (242) 
1

>  <r_epik_Ionization_Penalty>  (242) 
2.26002

>  <r_epik_Ionization_Penalty_Charging>  (242) 
0

>  <r_epik_Ionization_Penalty_Neutral>  (242) 
2.26002

>  <r_epik_State_Penalty>  (242) 
2.4078

>  <r_epik_Charging_Adjusted_Penalty>  (242) 
2.4078

>  <i_epik_Tot_Q>  (242) 
0

>  <i_epik_Tot_abs_Q>  (242) 
0

>  <s_lp_Force_Field>  (242) 
OPLS3e

>  <r_lp_Energy>  (242) 
54.8094

>  <b_lp_Chiralities_Consistent>  (242) 
0

>  <s_lp_Variant>  (242) 
78:0-2

>  <s_i_glide_gridfile>  (242) 
pfpi4k_grid

>  <i_i_glide_lignum>  (242) 
30

>  <i_i_glide_rotatable_bonds>  (242) 
5

>  <r_i_docking_score>  (242) 
-3.13618

>  <r_i_glide_ligand_efficiency>  (242) 
-0.130674

>  <r_i_glide_ligand_efficiency_sa>  (242) 
-0.37693

>  <r_i_glide_ligand_efficiency_ln>  (242) 
-0.750633

>  <r_i_glide_gscore>  (242) 
-3.13618

>  <r_i_glide_lipo>  (242) 
-0.170677

>  <r_i_glide_hbond>  (242) 
-0.32

>  <r_i_glide_metal>  (242) 
-0

>  <r_i_glide_rewards>  (242) 
-0.996838

>  <r_i_glide_evdw>  (242) 
-18.9393

>  <r_i_glide_ecoul>  (242) 
-6.55625

>  <r_i_glide_erotb>  (242) 
0.305197

>  <r_i_glide_esite>  (242) 
-0.0234607

>  <r_i_glide_emodel>  (242) 
-26.2841

>  <r_i_glide_energy>  (242) 
-25.4956

>  <r_i_glide_einternal>  (242) 
8.8824

>  <r_i_glide_intrahb_reward>  (242) 
-0

>  <i_i_glide_confnum>  (242) 
2

>  <i_i_glide_posenum>  (242) 
10

>  <r_i_glide_eff_state_penalty>  (242) 
0

>  <ligand_id>  (242) 
78

>  <original_smiles>  (242) 
CCC12Oc3c(c(O)n(CCO)c3O)C3C4C1CCOC34C=C2Cl

>  <smiles>  (242) 
[H]OC1=C2OC3(C([H])([H])C([H])([H])[H])C(Cl)=C([H])C45OC([H])([H])C([H])([H])C3([H])C4([H])C5([H])C2([H])C(=O)N1C([H])([H])C([H])([H])O[H]

$$$$
78:1:1
     RDKit          3D

 44 48  0  0  1  0  0  0  0  0999 V2000
    1.0967    5.7894    6.1400 C   0  0  0  0  0  0  0  0  0  0  0  0
    0.0057    5.0986    5.3042 C   0  0  0  0  0  0  0  0  0  0  0  0
   -0.0861    3.5530    5.4652 C   0  0  1  0  0  0  0  0  0  0  0  0
    1.2171    3.0898    5.0530 O   0  0  0  0  0  0  0  0  0  0  0  0
    1.2965    1.8436    4.4730 C   0  0  0  0  0  0  0  0  0  0  0  0
    1.1758    0.5790    5.2855 C   0  0  2  0  0  0  0  0  0  0  0  0
    1.1827   -0.4579    4.1534 C   0  0  0  0  0  0  0  0  0  0  0  0
    0.9686   -1.6491    4.3150 O   0  0  0  0  0  0  0  0  0  0  0  0
    1.4597    0.1693    2.9829 N   0  0  0  0  0  0  0  0  0  0  0  0
    1.5675   -0.4744    1.6804 C   0  0  0  0  0  0  0  0  0  0  0  0
    3.0080   -0.8846    1.3347 C   0  0  0  0  0  0  0  0  0  0  0  0
    3.0215   -1.7013    0.1804 O   0  0  0  0  0  0  0  0  0  0  0  0
    1.5044    1.5386    3.1932 C   0  0  0  0  0  0  0  0  0  0  0  0
    1.6871    2.3268    2.1205 O   0  0  0  0  0  0  0  0  0  0  0  0
    0.0165    0.4534    6.2739 C   0  0  1  0  0  0  0  0  0  0  0  0
   -0.2841    1.6246    7.1342 C   0  0  1  0  0  0  0  0  0  0  0  0
   -0.2948    3.1203    6.9611 C   0  0  2  0  0  0  0  0  0  0  0  0
   -1.6422    3.5428    7.6349 C   0  0  0  0  0  0  0  0  0  0  0  0
   -2.8039    2.4933    7.5062 C   0  0  0  0  0  0  0  0  0  0  0  0
   -2.3642    1.1389    7.2193 O   0  0  0  0  0  0  0  0  0  0  0  0
   -1.3663    1.0809    6.1964 C   0  0  2  0  0  0  0  0  0  0  0  0
   -1.7886    1.7714    4.9480 C   0  0  0  0  0  0  0  0  0  0  0  0
   -1.2002    2.9260    4.6026 C   0  0  0  0  0  0  0  0  0  0  0  0
   -1.6688    3.8205    3.2004 Cl  0  0  0  0  0  0  0  0  0  0  0  0
    1.1657    6.8456    5.8803 H   0  0  0  0  0  0  0  0  0  0  0  0
    2.0792    5.3523    5.9571 H   0  0  0  0  0  0  0  0  0  0  0  0
    0.8959    5.7324    7.2095 H   0  0  0  0  0  0  0  0  0  0  0  0
   -0.9547    5.5600    5.5252 H   0  0  0  0  0  0  0  0  0  0  0  0
    0.2227    5.3387    4.2624 H   0  0  0  0  0  0  0  0  0  0  0  0
    2.1005    0.4575    5.8486 H   0  0  0  0  0  0  0  0  0  0  0  0
    1.1820    0.1939    0.9099 H   0  0  0  0  0  0  0  0  0  0  0  0
    0.9242   -1.3502    1.6699 H   0  0  0  0  0  0  0  0  0  0  0  0
    3.6228   -0.0035    1.1565 H   0  0  0  0  0  0  0  0  0  0  0  0
    3.4674   -1.4443    2.1504 H   0  0  0  0  0  0  0  0  0  0  0  0
    2.2809   -1.4400   -0.3709 H   0  0  0  0  0  0  0  0  0  0  0  0
    1.5146    3.2216    2.3770 H   0  0  0  0  0  0  0  0  0  0  0  0
    0.0180   -0.5027    6.7809 H   0  0  0  0  0  0  0  0  0  0  0  0
   -0.2802    1.3422    8.1859 H   0  0  0  0  0  0  0  0  0  0  0  0
    0.5251    3.5239    7.5546 H   0  0  0  0  0  0  0  0  0  0  0  0
   -1.4499    3.6819    8.7020 H   0  0  0  0  0  0  0  0  0  0  0  0
   -1.9875    4.5119    7.2825 H   0  0  0  0  0  0  0  0  0  0  0  0
   -3.3756    2.4897    8.4359 H   0  0  0  0  0  0  0  0  0  0  0  0
   -3.5160    2.8042    6.7388 H   0  0  0  0  0  0  0  0  0  0  0  0
   -2.5735    1.3300    4.3640 H   0  0  0  0  0  0  0  0  0  0  0  0
  1  2  1  0
  1 25  1  0
  1 26  1  0
  1 27  1  0
  3  2  1  1
  2 28  1  0
  2 29  1  0
  3 17  1  0
  3 23  1  0
  3  4  1  0
  4  5  1  0
  5  6  1  0
  5 13  2  0
  6 15  1  0
  6 30  1  1
  6  7  1  0
  7  9  1  0
  7  8  2  0
  9 13  1  0
  9 10  1  0
 10 11  1  0
 10 31  1  0
 10 32  1  0
 11 12  1  0
 11 33  1  0
 11 34  1  0
 12 35  1  0
 13 14  1  0
 14 36  1  0
 15 21  1  0
 15 16  1  0
 15 37  1  1
 16 21  1  0
 16 17  1  0
 16 38  1  1
 17 18  1  0
 17 39  1  1
 18 19  1  0
 18 40  1  0
 18 41  1  0
 19 20  1  0
 19 42  1  0
 19 43  1  0
 21 20  1  1
 21 22  1  0
 22 23  2  0
 22 44  1  0
 23 24  1  0
M  END
>  <i_m_ct_stereo_status>  (243) 
1

>  <s_m_source_file>  (243) 
/var/tmp/pbs.5076255.sched01/tmppxy1xzy0/80exjuxwr6.sdf

>  <i_m_source_file_index>  (243) 
30

>  <i_lp_mmshare_version>  (243) 
48012

>  <i_f3d_flags>  (243) 
3

>  <s_epik_input>  (243) 
TzFbQ0gyXVtDSDJdW0NAQEhdKFtDQEBIXTIzKVtDQF0oW0NIMl1bQ0gzXSkoQyhDbCk9W0NIXTQpT2MoYzVbQ0hdMkMxMzQpYyhbT0hdKW4oYzVbT0hdKVtDSDJdW0NIMl1bT0hd

>  <s_epik_cmdline>  (243) 
J2VwaWtfcHl0aG9uJywgJy1waHQnLCAnMi4wJywgJy1waCcsICc3LjAnLCAnLXRuJywgJzgnLCAnLW1hJywgJzIwMCcsICctaW1hZScsICc8aW5maWxlLm1hZT4nLCAnLW9tYWUnLCAnPG91dGZpbGUubWFlPic=

>  <r_lp_tautomer_probability>  (243) 
1

>  <r_epik_Ionization_Penalty>  (243) 
2.26002

>  <r_epik_Ionization_Penalty_Charging>  (243) 
0

>  <r_epik_Ionization_Penalty_Neutral>  (243) 
2.26002

>  <r_epik_State_Penalty>  (243) 
2.4078

>  <r_epik_Charging_Adjusted_Penalty>  (243) 
2.4078

>  <i_epik_Tot_Q>  (243) 
0

>  <i_epik_Tot_abs_Q>  (243) 
0

>  <s_lp_Force_Field>  (243) 
OPLS3e

>  <r_lp_Energy>  (243) 
54.8094

>  <b_lp_Chiralities_Consistent>  (243) 
0

>  <s_lp_Variant>  (243) 
78:0-2

>  <s_i_glide_gridfile>  (243) 
pfpi4k_grid

>  <i_i_glide_lignum>  (243) 
30

>  <i_i_glide_rotatable_bonds>  (243) 
5

>  <r_i_docking_score>  (243) 
-3.12125

>  <r_i_glide_ligand_efficiency>  (243) 
-0.130052

>  <r_i_glide_ligand_efficiency_sa>  (243) 
-0.375135

>  <r_i_glide_ligand_efficiency_ln>  (243) 
-0.747059

>  <r_i_glide_gscore>  (243) 
-3.12125

>  <r_i_glide_lipo>  (243) 
-0.153604

>  <r_i_glide_hbond>  (243) 
-0.32

>  <r_i_glide_metal>  (243) 
-0

>  <r_i_glide_rewards>  (243) 
-0.996838

>  <r_i_glide_evdw>  (243) 
-16.7503

>  <r_i_glide_ecoul>  (243) 
-7.31141

>  <r_i_glide_erotb>  (243) 
0.305197

>  <r_i_glide_esite>  (243) 
-0.0217781

>  <r_i_glide_emodel>  (243) 
-29.482

>  <r_i_glide_energy>  (243) 
-24.0617

>  <r_i_glide_einternal>  (243) 
1.22754

>  <r_i_glide_intrahb_reward>  (243) 
-0

>  <i_i_glide_confnum>  (243) 
4

>  <i_i_glide_posenum>  (243) 
33

>  <r_i_glide_eff_state_penalty>  (243) 
0

>  <ligand_id>  (243) 
78

>  <original_smiles>  (243) 
CCC12Oc3c(c(O)n(CCO)c3O)C3C4C1CCOC34C=C2Cl

>  <smiles>  (243) 
[H]OC1=C2OC3(C([H])([H])C([H])([H])[H])C(Cl)=C([H])C45OC([H])([H])C([H])([H])C3([H])C4([H])C5([H])C2([H])C(=O)N1C([H])([H])C([H])([H])O[H]

$$$$
78:1:2
     RDKit          3D

 44 48  0  0  1  0  0  0  0  0999 V2000
    0.0926    5.9229    4.9152 C   0  0  0  0  0  0  0  0  0  0  0  0
   -0.7628    4.7461    4.4090 C   0  0  0  0  0  0  0  0  0  0  0  0
   -0.3587    3.3402    4.9292 C   0  0  1  0  0  0  0  0  0  0  0  0
    0.9844    3.1725    4.4377 O   0  0  0  0  0  0  0  0  0  0  0  0
    1.4020    1.8948    4.1416 C   0  0  0  0  0  0  0  0  0  0  0  0
    1.7392    0.9072    5.2301 C   0  0  2  0  0  0  0  0  0  0  0  0
    1.9747   -0.3407    4.3643 C   0  0  0  0  0  0  0  0  0  0  0  0
    2.1635   -1.4614    4.8351 O   0  0  0  0  0  0  0  0  0  0  0  0
    1.9386   -0.0058    3.0560 N   0  0  0  0  0  0  0  0  0  0  0  0
    2.1342   -0.9121    1.9219 C   0  0  0  0  0  0  0  0  0  0  0  0
    3.4215   -0.6168    1.1270 C   0  0  0  0  0  0  0  0  0  0  0  0
    3.4078   -1.3407   -0.0867 O   0  0  0  0  0  0  0  0  0  0  0  0
    1.5662    1.3341    2.9465 C   0  0  0  0  0  0  0  0  0  0  0  0
    1.3743    1.8307    1.7144 O   0  0  0  0  0  0  0  0  0  0  0  0
    0.7515    0.7248    6.3876 C   0  0  1  0  0  0  0  0  0  0  0  0
    0.1746    1.9444    7.0005 C   0  0  1  0  0  0  0  0  0  0  0  0
   -0.3074    3.2765    6.4990 C   0  0  2  0  0  0  0  0  0  0  0  0
   -1.6634    3.4636    7.2596 C   0  0  0  0  0  0  0  0  0  0  0  0
   -2.4548    2.1476    7.5589 C   0  0  0  0  0  0  0  0  0  0  0  0
   -1.6460    0.9438    7.5095 O   0  0  0  0  0  0  0  0  0  0  0  0
   -0.7638    0.8959    6.3876 C   0  0  2  0  0  0  0  0  0  0  0  0
   -1.4780    1.0928    5.0982 C   0  0  0  0  0  0  0  0  0  0  0  0
   -1.2942    2.2281    4.4091 C   0  0  0  0  0  0  0  0  0  0  0  0
   -2.1045    2.5571    2.9144 Cl  0  0  0  0  0  0  0  0  0  0  0  0
   -0.1769    6.8493    4.4077 H   0  0  0  0  0  0  0  0  0  0  0  0
    1.1516    5.7592    4.7144 H   0  0  0  0  0  0  0  0  0  0  0  0
   -0.0228    6.0922    5.9856 H   0  0  0  0  0  0  0  0  0  0  0  0
   -1.8095    4.9218    4.6444 H   0  0  0  0  0  0  0  0  0  0  0  0
   -0.6876    4.7630    3.3200 H   0  0  0  0  0  0  0  0  0  0  0  0
    2.6972    1.2015    5.6595 H   0  0  0  0  0  0  0  0  0  0  0  0
    1.2584   -0.8330    1.2788 H   0  0  0  0  0  0  0  0  0  0  0  0
    2.1622   -1.9478    2.2587 H   0  0  0  0  0  0  0  0  0  0  0  0
    3.4980    0.4383    0.8779 H   0  0  0  0  0  0  0  0  0  0  0  0
    4.3099   -0.8740    1.7037 H   0  0  0  0  0  0  0  0  0  0  0  0
    2.5356   -1.2415   -0.4677 H   0  0  0  0  0  0  0  0  0  0  0  0
    1.0701    2.7278    1.7925 H   0  0  0  0  0  0  0  0  0  0  0  0
    1.0937   -0.0251    7.0950 H   0  0  0  0  0  0  0  0  0  0  0  0
    0.3546    1.9610    8.0762 H   0  0  0  0  0  0  0  0  0  0  0  0
    0.3920    4.0347    6.8528 H   0  0  0  0  0  0  0  0  0  0  0  0
   -1.4441    3.9405    8.2195 H   0  0  0  0  0  0  0  0  0  0  0  0
   -2.3299    4.1432    6.7335 H   0  0  0  0  0  0  0  0  0  0  0  0
   -2.9163    2.2138    8.5467 H   0  0  0  0  0  0  0  0  0  0  0  0
   -3.2845    2.0385    6.8638 H   0  0  0  0  0  0  0  0  0  0  0  0
   -2.1385    0.3118    4.7564 H   0  0  0  0  0  0  0  0  0  0  0  0
  1  2  1  0
  1 25  1  0
  1 26  1  0
  1 27  1  0
  3  2  1  1
  2 28  1  0
  2 29  1  0
  3 17  1  0
  3 23  1  0
  3  4  1  0
  4  5  1  0
  5  6  1  0
  5 13  2  0
  6 15  1  0
  6 30  1  1
  6  7  1  0
  7  9  1  0
  7  8  2  0
  9 13  1  0
  9 10  1  0
 10 11  1  0
 10 31  1  0
 10 32  1  0
 11 12  1  0
 11 33  1  0
 11 34  1  0
 12 35  1  0
 13 14  1  0
 14 36  1  0
 15 21  1  0
 15 16  1  0
 15 37  1  1
 16 21  1  0
 16 17  1  0
 16 38  1  1
 17 18  1  0
 17 39  1  1
 18 19  1  0
 18 40  1  0
 18 41  1  0
 19 20  1  0
 19 42  1  0
 19 43  1  0
 21 20  1  1
 21 22  1  0
 22 23  2  0
 22 44  1  0
 23 24  1  0
M  END
>  <i_m_ct_stereo_status>  (244) 
1

>  <s_m_source_file>  (244) 
/var/tmp/pbs.5076255.sched01/tmppxy1xzy0/80exjuxwr6.sdf

>  <i_m_source_file_index>  (244) 
30

>  <i_lp_mmshare_version>  (244) 
48012

>  <i_f3d_flags>  (244) 
3

>  <s_epik_input>  (244) 
TzFbQ0gyXVtDSDJdW0NAQEhdKFtDQEBIXTIzKVtDQF0oW0NIMl1bQ0gzXSkoQyhDbCk9W0NIXTQpT2MoYzVbQ0hdMkMxMzQpYyhbT0hdKW4oYzVbT0hdKVtDSDJdW0NIMl1bT0hd

>  <s_epik_cmdline>  (244) 
J2VwaWtfcHl0aG9uJywgJy1waHQnLCAnMi4wJywgJy1waCcsICc3LjAnLCAnLXRuJywgJzgnLCAnLW1hJywgJzIwMCcsICctaW1hZScsICc8aW5maWxlLm1hZT4nLCAnLW9tYWUnLCAnPG91dGZpbGUubWFlPic=

>  <r_lp_tautomer_probability>  (244) 
1

>  <r_epik_Ionization_Penalty>  (244) 
2.26002

>  <r_epik_Ionization_Penalty_Charging>  (244) 
0

>  <r_epik_Ionization_Penalty_Neutral>  (244) 
2.26002

>  <r_epik_State_Penalty>  (244) 
2.4078

>  <r_epik_Charging_Adjusted_Penalty>  (244) 
2.4078

>  <i_epik_Tot_Q>  (244) 
0

>  <i_epik_Tot_abs_Q>  (244) 
0

>  <s_lp_Force_Field>  (244) 
OPLS3e

>  <r_lp_Energy>  (244) 
54.8094

>  <b_lp_Chiralities_Consistent>  (244) 
0

>  <s_lp_Variant>  (244) 
78:0-2

>  <s_i_glide_gridfile>  (244) 
pfpi4k_grid

>  <i_i_glide_lignum>  (244) 
30

>  <i_i_glide_rotatable_bonds>  (244) 
5

>  <r_i_docking_score>  (244) 
-2.9815

>  <r_i_glide_ligand_efficiency>  (244) 
-0.124229

>  <r_i_glide_ligand_efficiency_sa>  (244) 
-0.35834

>  <r_i_glide_ligand_efficiency_ln>  (244) 
-0.713611

>  <r_i_glide_gscore>  (244) 
-2.9815

>  <r_i_glide_lipo>  (244) 
-0.042739

>  <r_i_glide_hbond>  (244) 
-0.29809

>  <r_i_glide_metal>  (244) 
-0

>  <r_i_glide_rewards>  (244) 
-0.996838

>  <r_i_glide_evdw>  (244) 
-18.9006

>  <r_i_glide_ecoul>  (244) 
-6.61839

>  <r_i_glide_erotb>  (244) 
0.305197

>  <r_i_glide_esite>  (244) 
-0.0112445

>  <r_i_glide_emodel>  (244) 
-30.8697

>  <r_i_glide_energy>  (244) 
-25.519

>  <r_i_glide_einternal>  (244) 
0.9559

>  <r_i_glide_intrahb_reward>  (244) 
-0

>  <i_i_glide_confnum>  (244) 
2

>  <i_i_glide_posenum>  (244) 
23

>  <r_i_glide_eff_state_penalty>  (244) 
0

>  <ligand_id>  (244) 
78

>  <original_smiles>  (244) 
CCC12Oc3c(c(O)n(CCO)c3O)C3C4C1CCOC34C=C2Cl

>  <smiles>  (244) 
[H]OC1=C2OC3(C([H])([H])C([H])([H])[H])C(Cl)=C([H])C45OC([H])([H])C([H])([H])C3([H])C4([H])C5([H])C2([H])C(=O)N1C([H])([H])C([H])([H])O[H]

$$$$
79:0:0
     RDKit          3D

 69 74  0  0  1  0  0  0  0  0999 V2000
    6.4653   -7.9103    5.1831 C   0  0  0  0  0  0  0  0  0  0  0  0
    6.3747   -7.4320    3.7456 C   0  0  0  0  0  0  0  0  0  0  0  0
    5.3949   -7.6869    2.8837 C   0  0  0  0  0  0  0  0  0  0  0  0
    5.5881   -7.0517    1.5346 C   0  0  1  0  0  0  0  0  0  0  0  0
    4.3823   -6.2325    1.0094 C   0  0  1  0  0  0  0  0  0  0  0  0
    3.2023   -7.0487    0.9591 O   0  0  0  0  0  0  0  0  0  0  0  0
    2.1036   -6.3569    1.4856 C   0  0  1  0  0  0  0  0  0  0  0  0
    1.5869   -7.0532    2.5752 O   0  0  0  0  0  0  0  0  0  0  0  0
    0.3207   -7.5318    2.4663 C   0  0  0  0  0  0  0  0  0  0  0  0
   -0.5701   -7.0656    1.7624 O   0  0  0  0  0  0  0  0  0  0  0  0
    0.0712   -8.7676    3.3826 C   0  0  2  0  0  0  0  0  0  0  0  0
    0.7694   -8.6038    4.6103 O   0  0  0  0  0  0  0  0  0  0  0  0
    1.3843   -9.8480    4.7996 C   0  0  2  0  0  0  0  0  0  0  0  0
    2.6923   -9.7769    4.0158 C   0  0  0  0  0  0  0  0  0  0  0  0
    2.1060   -9.9585    2.6256 C   0  0  0  0  0  0  0  0  0  0  0  0
    2.6710   -9.8571    1.5348 O   0  0  0  0  0  0  0  0  0  0  0  0
    0.6111  -10.1304    2.8760 C   0  0  1  0  0  0  0  0  0  0  0  0
    0.6175  -10.7829    4.1219 O   0  0  0  0  0  0  0  0  0  0  0  0
    2.6409   -5.0548    1.9756 C   0  0  0  0  0  0  0  0  0  0  0  0
    3.9556   -4.9835    1.7467 C   0  0  0  0  0  0  0  0  0  0  0  0
    4.8854   -3.8503    2.1667 C   0  0  2  0  0  0  0  0  0  0  0  0
    5.2242   -4.1351    3.6556 C   0  0  0  0  0  0  0  0  0  0  0  0
    4.1095   -2.4765    2.2246 C   0  0  1  0  0  0  0  0  0  0  0  0
    4.8131   -1.5146    2.9857 O   0  0  0  0  0  0  0  0  0  0  0  0
    3.8540   -1.8223    0.8667 C   0  0  0  0  0  0  0  0  0  0  0  0
    5.1758   -1.6252    0.1259 C   0  0  0  0  0  0  0  0  0  0  0  0
    5.9197   -2.9541   -0.1279 C   0  0  0  0  0  0  0  0  0  0  0  0
    5.1146   -3.7380   -1.1928 C   0  0  0  0  0  0  0  0  0  0  0  0
    7.2649   -2.5668   -0.7685 C   0  0  0  0  0  0  0  0  0  0  0  0
    6.1709   -3.7310    1.2408 C   0  0  2  0  0  0  0  0  0  0  0  0
    7.1459   -4.9747    1.0152 C   0  0  1  0  0  0  0  0  0  0  0  0
    8.4821   -4.5727    1.2656 O   0  0  0  0  0  0  0  0  0  0  0  0
    6.9796   -6.3800    1.6842 C   0  0  2  0  0  0  0  0  0  0  0  0
    7.8382   -7.2583    0.9608 O   0  0  0  0  0  0  0  0  0  0  0  0
    7.4485   -6.5489    3.1690 C   0  0  0  0  0  0  0  0  0  0  0  0
    6.5360   -7.0682    5.8652 H   0  0  0  0  0  0  0  0  0  0  0  0
    7.3414   -8.5333    5.3227 H   0  0  0  0  0  0  0  0  0  0  0  0
    5.5899   -8.4905    5.4642 H   0  0  0  0  0  0  0  0  0  0  0  0
    4.5319   -8.3137    3.0332 H   0  0  0  0  0  0  0  0  0  0  0  0
    5.6645   -7.9171    0.8776 H   0  0  0  0  0  0  0  0  0  0  0  0
    4.6114   -5.9602   -0.0120 H   0  0  0  0  0  0  0  0  0  0  0  0
    1.3927   -6.1869    0.6789 H   0  0  0  0  0  0  0  0  0  0  0  0
   -0.9730   -8.8798    3.6559 H   0  0  0  0  0  0  0  0  0  0  0  0
    1.5068  -10.0682    5.8362 H   0  0  0  0  0  0  0  0  0  0  0  0
    3.0512   -8.7604    4.2389 H   0  0  0  0  0  0  0  0  0  0  0  0
    3.4118  -10.5761    4.2896 H   0  0  0  0  0  0  0  0  0  0  0  0
    0.0205  -10.6839    2.1456 H   0  0  0  0  0  0  0  0  0  0  0  0
    2.0311   -4.3402    2.4974 H   0  0  0  0  0  0  0  0  0  0  0  0
    6.1634   -3.6831    3.9545 H   0  0  0  0  0  0  0  0  0  0  0  0
    5.2660   -5.1904    3.8801 H   0  0  0  0  0  0  0  0  0  0  0  0
    4.4640   -3.7394    4.3347 H   0  0  0  0  0  0  0  0  0  0  0  0
    3.1494   -2.5931    2.7290 H   0  0  0  0  0  0  0  0  0  0  0  0
    4.2685   -0.7412    3.0385 H   0  0  0  0  0  0  0  0  0  0  0  0
    3.1633   -2.4281    0.2838 H   0  0  0  0  0  0  0  0  0  0  0  0
    3.3560   -0.8571    0.9958 H   0  0  0  0  0  0  0  0  0  0  0  0
    4.9747   -1.1195   -0.8198 H   0  0  0  0  0  0  0  0  0  0  0  0
    5.8146   -0.9465    0.6937 H   0  0  0  0  0  0  0  0  0  0  0  0
    5.6186   -4.6441   -1.5260 H   0  0  0  0  0  0  0  0  0  0  0  0
    4.9503   -3.1298   -2.0861 H   0  0  0  0  0  0  0  0  0  0  0  0
    4.1285   -4.0292   -0.8387 H   0  0  0  0  0  0  0  0  0  0  0  0
    7.8273   -3.4264   -1.1346 H   0  0  0  0  0  0  0  0  0  0  0  0
    7.9021   -2.0363   -0.0600 H   0  0  0  0  0  0  0  0  0  0  0  0
    7.1001   -1.9236   -1.6317 H   0  0  0  0  0  0  0  0  0  0  0  0
    6.7728   -3.0236    1.8126 H   0  0  0  0  0  0  0  0  0  0  0  0
    7.0949   -5.1941   -0.0455 H   0  0  0  0  0  0  0  0  0  0  0  0
    8.5738   -4.4628    2.2091 H   0  0  0  0  0  0  0  0  0  0  0  0
    8.7434   -7.1084    1.2121 H   0  0  0  0  0  0  0  0  0  0  0  0
    7.5173   -5.6120    3.7227 H   0  0  0  0  0  0  0  0  0  0  0  0
    8.4095   -7.0641    3.2541 H   0  0  0  0  0  0  0  0  0  0  0  0
  1  2  1  0
  1 36  1  0
  1 37  1  0
  1 38  1  0
  2 35  1  0
  2  3  2  0
  3  4  1  0
  3 39  1  0
  4 33  1  0
  4  5  1  0
  4 40  1  6
  5 20  1  0
  5  6  1  0
  5 41  1  6
  6  7  1  0
  7  8  1  0
  7 19  1  0
  7 42  1  6
  8  9  1  0
  9 10  2  0
  9 11  1  0
 11 17  1  0
 11 12  1  0
 11 43  1  1
 12 13  1  0
 13 18  1  0
 13 14  1  0
 13 44  1  1
 14 15  1  0
 14 45  1  0
 14 46  1  0
 15 16  2  0
 15 17  1  0
 17 18  1  0
 17 47  1  6
 19 20  2  0
 19 48  1  0
 20 21  1  0
 21 30  1  0
 21 22  1  1
 21 23  1  0
 22 49  1  0
 22 50  1  0
 22 51  1  0
 23 24  1  0
 23 25  1  0
 23 52  1  1
 24 53  1  0
 25 26  1  0
 25 54  1  0
 25 55  1  0
 26 27  1  0
 26 56  1  0
 26 57  1  0
 27 28  1  0
 27 29  1  0
 27 30  1  0
 28 58  1  0
 28 59  1  0
 28 60  1  0
 29 61  1  0
 29 62  1  0
 29 63  1  0
 30 31  1  0
 30 64  1  1
 31 32  1  0
 31 33  1  0
 31 65  1  6
 32 66  1  0
 33 34  1  6
 33 35  1  0
 34 67  1  0
 35 68  1  0
 35 69  1  0
M  END
>  <i_m_ct_stereo_status>  (245) 
1

>  <s_m_source_file>  (245) 
/var/tmp/pbs.5076255.sched01/tmppxy1xzy0/80exjuxwr6.sdf

>  <i_m_source_file_index>  (245) 
31

>  <i_lp_mmshare_version>  (245) 
48012

>  <i_f3d_flags>  (245) 
0

>  <s_epik_input>  (245) 
W09IXVtDQEhdMVtDSDJdW0NIMl1DKFtDSDNdKShbQ0gzXSlbQ0BASF0yW0NAQEhdKFtPSF0pW0NAQF0oW09IXSkoW0NIMl1DKFtDSDNdKT1bQ0hdMylbQ0BASF0zW0NASF0oQzRbQ0BdMTJbQ0gzXSlPW0NASF0oW0NIXT00KU9DKD1PKVtDQEhdKE9bQ0BIXTU2KVtDQEhdKE82KUMoPU8pW0NIMl01

>  <s_epik_cmdline>  (245) 
J2VwaWtfcHl0aG9uJywgJy1waHQnLCAnMi4wJywgJy1waCcsICc3LjAnLCAnLXRuJywgJzgnLCAnLW1hJywgJzIwMCcsICctaW1hZScsICc8aW5maWxlLm1hZT4nLCAnLW9tYWUnLCAnPG91dGZpbGUubWFlPic=

>  <r_lp_tautomer_probability>  (245) 
1

>  <r_epik_Ionization_Penalty>  (245) 
2.99795e-07

>  <r_epik_Ionization_Penalty_Charging>  (245) 
0

>  <r_epik_Ionization_Penalty_Neutral>  (245) 
2.99795e-07

>  <r_epik_State_Penalty>  (245) 
-0

>  <r_epik_Charging_Adjusted_Penalty>  (245) 
0

>  <i_epik_Tot_Q>  (245) 
0

>  <i_epik_Tot_abs_Q>  (245) 
0

>  <s_epik_Chemistry_Notes>  (245) 
This compound has an ester and may undergo hydrolysis at high or low pH. This compound contains an acetal/aminal-like group ( X-CH(R)-Y where X, Y are N, S, or O) that may be acid/base labile, releasing an aldehyde.

>  <s_lp_Force_Field>  (245) 
OPLS3e

>  <r_lp_Energy>  (245) 
45.6799

>  <b_lp_Chiralities_Consistent>  (245) 
1

>  <s_lp_Variant>  (245) 
79:0-1

>  <s_i_glide_gridfile>  (245) 
pfpi4k_grid

>  <i_i_glide_lignum>  (245) 
31

>  <i_i_glide_rotatable_bonds>  (245) 
6

>  <r_i_docking_score>  (245) 
-3.47676

>  <r_i_glide_ligand_efficiency>  (245) 
-0.0993359

>  <r_i_glide_ligand_efficiency_sa>  (245) 
-0.324934

>  <r_i_glide_ligand_efficiency_ln>  (245) 
-0.763225

>  <r_i_glide_gscore>  (245) 
-3.47676

>  <r_i_glide_lipo>  (245) 
-0.684312

>  <r_i_glide_hbond>  (245) 
-0.10349

>  <r_i_glide_metal>  (245) 
-0

>  <r_i_glide_rewards>  (245) 
-0.150638

>  <r_i_glide_evdw>  (245) 
-36.5954

>  <r_i_glide_ecoul>  (245) 
-5.68323

>  <r_i_glide_erotb>  (245) 
0.253723

>  <r_i_glide_esite>  (245) 
-0.109784

>  <r_i_glide_emodel>  (245) 
-46.1302

>  <r_i_glide_energy>  (245) 
-42.2786

>  <r_i_glide_einternal>  (245) 
6.41369

>  <r_i_glide_intrahb_reward>  (245) 
-0

>  <i_i_glide_confnum>  (245) 
2

>  <i_i_glide_posenum>  (245) 
13

>  <r_i_glide_eff_state_penalty>  (245) 
0

>  <ligand_id>  (245) 
79

>  <original_smiles>  (245) 
CC1=CC2C3OC(OC(=O)C4OC5CC(=O)C4O5)C=C3C3(C)C(O)CCC(C)(C)C3C(O)C2(O)C1

>  <smiles>  (245) 
[H]OC1([H])C2([H])C(C([H])([H])[H])(C3=C([H])C([H])(OC(=O)C4([H])OC5([H])OC4([H])C(=O)C5([H])[H])OC3([H])C3([H])C([H])=C(C([H])([H])[H])C([H])([H])C13O[H])C([H])(O[H])C([H])([H])C([H])([H])C2(C([H])([H])[H])C([H])([H])[H]

$$$$
79:0:1
     RDKit          3D

 69 74  0  0  1  0  0  0  0  0999 V2000
    6.3239   -7.8824    5.2950 C   0  0  0  0  0  0  0  0  0  0  0  0
    6.2909   -7.4279    3.8530 C   0  0  0  0  0  0  0  0  0  0  0  0
    5.3347   -7.6798    2.9476 C   0  0  0  0  0  0  0  0  0  0  0  0
    5.5872   -7.0728    1.6149 C   0  0  1  0  0  0  0  0  0  0  0  0
    4.4108   -6.2343    1.0364 C   0  0  1  0  0  0  0  0  0  0  0  0
    3.2146   -7.0258    0.9613 O   0  0  0  0  0  0  0  0  0  0  0  0
    2.1134   -6.3059    1.4521 C   0  0  1  0  0  0  0  0  0  0  0  0
    1.5592   -6.9727    2.5451 O   0  0  0  0  0  0  0  0  0  0  0  0
    0.3113   -7.4923    2.3726 C   0  0  0  0  0  0  0  0  0  0  0  0
   -0.5330   -7.0853    1.5970 O   0  0  0  0  0  0  0  0  0  0  0  0
    0.0281   -8.6861    3.3218 C   0  0  2  0  0  0  0  0  0  0  0  0
    0.6868   -8.4777    4.5643 O   0  0  0  0  0  0  0  0  0  0  0  0
    1.2986   -9.7150    4.7947 C   0  0  2  0  0  0  0  0  0  0  0  0
    2.6329   -9.6664    4.0567 C   0  0  0  0  0  0  0  0  0  0  0  0
    2.0770   -9.9039    2.6659 C   0  0  0  0  0  0  0  0  0  0  0  0
    2.6631   -9.8310    1.5866 O   0  0  0  0  0  0  0  0  0  0  0  0
    0.5793  -10.0670    2.8887 C   0  0  1  0  0  0  0  0  0  0  0  0
    0.5473  -10.6966    4.1496 O   0  0  0  0  0  0  0  0  0  0  0  0
    2.6694   -5.0114    1.9363 C   0  0  0  0  0  0  0  0  0  0  0  0
    3.9927   -4.9689    1.7461 C   0  0  0  0  0  0  0  0  0  0  0  0
    4.9327   -3.8460    2.1749 C   0  0  2  0  0  0  0  0  0  0  0  0
    5.2257   -4.1117    3.6751 C   0  0  0  0  0  0  0  0  0  0  0  0
    4.1969   -2.4513    2.1909 C   0  0  1  0  0  0  0  0  0  0  0  0
    4.8910   -1.5019    2.9857 O   0  0  0  0  0  0  0  0  0  0  0  0
    4.0011   -1.8099    0.8156 C   0  0  0  0  0  0  0  0  0  0  0  0
    5.3459   -1.6569    0.1058 C   0  0  0  0  0  0  0  0  0  0  0  0
    6.0586   -3.0052   -0.1035 C   0  0  0  0  0  0  0  0  0  0  0  0
    5.2613   -3.7773   -1.1781 C   0  0  0  0  0  0  0  0  0  0  0  0
    7.4340   -2.6661   -0.7130 C   0  0  0  0  0  0  0  0  0  0  0  0
    6.2458   -3.7710    1.2780 C   0  0  2  0  0  0  0  0  0  0  0  0
    7.2033   -5.0348    1.1107 C   0  0  1  0  0  0  0  0  0  0  0  0
    8.5412   -4.6519    1.4044 O   0  0  0  0  0  0  0  0  0  0  0  0
    6.9928   -6.4167    1.7966 C   0  0  2  0  0  0  0  0  0  0  0  0
    7.8431   -7.3345    1.1098 O   0  0  0  0  0  0  0  0  0  0  0  0
    7.4121   -6.5773    3.2937 C   0  0  0  0  0  0  0  0  0  0  0  0
    6.3958   -7.0384    5.9771 H   0  0  0  0  0  0  0  0  0  0  0  0
    7.1773   -8.5281    5.4854 H   0  0  0  0  0  0  0  0  0  0  0  0
    5.4284   -8.4383    5.5712 H   0  0  0  0  0  0  0  0  0  0  0  0
    4.4629   -8.2829    3.0716 H   0  0  0  0  0  0  0  0  0  0  0  0
    5.6636   -7.9519    0.9763 H   0  0  0  0  0  0  0  0  0  0  0  0
    4.6743   -5.9833    0.0192 H   0  0  0  0  0  0  0  0  0  0  0  0
    1.4343   -6.1207    0.6182 H   0  0  0  0  0  0  0  0  0  0  0  0
   -1.0279   -8.7850    3.5681 H   0  0  0  0  0  0  0  0  0  0  0  0
    1.4007   -9.9004    5.8494 H   0  0  0  0  0  0  0  0  0  0  0  0
    2.9420   -8.6397    4.2959 H   0  0  0  0  0  0  0  0  0  0  0  0
    3.3274  -10.4562    4.3822 H   0  0  0  0  0  0  0  0  0  0  0  0
    0.0090  -10.6370    2.1641 H   0  0  0  0  0  0  0  0  0  0  0  0
    2.0649   -4.2702    2.4278 H   0  0  0  0  0  0  0  0  0  0  0  0
    6.1672   -3.6832    3.9984 H   0  0  0  0  0  0  0  0  0  0  0  0
    5.2326   -5.1615    3.9209 H   0  0  0  0  0  0  0  0  0  0  0  0
    4.4531   -3.6885    4.3229 H   0  0  0  0  0  0  0  0  0  0  0  0
    3.2149   -2.5404    2.6552 H   0  0  0  0  0  0  0  0  0  0  0  0
    5.7313   -1.3369    2.5854 H   0  0  0  0  0  0  0  0  0  0  0  0
    3.3132   -2.4069    0.2193 H   0  0  0  0  0  0  0  0  0  0  0  0
    3.5242   -0.8324    0.9162 H   0  0  0  0  0  0  0  0  0  0  0  0
    5.1827   -1.1700   -0.8565 H   0  0  0  0  0  0  0  0  0  0  0  0
    5.9855   -0.9821    0.6751 H   0  0  0  0  0  0  0  0  0  0  0  0
    5.7635   -4.6867   -1.4791 H   0  0  0  0  0  0  0  0  0  0  0  0
    5.1373   -3.1868   -2.0876 H   0  0  0  0  0  0  0  0  0  0  0  0
    4.2639   -4.0537   -0.8468 H   0  0  0  0  0  0  0  0  0  0  0  0
    7.9853   -3.5458   -1.0412 H   0  0  0  0  0  0  0  0  0  0  0  0
    8.0656   -2.1395    0.0038 H   0  0  0  0  0  0  0  0  0  0  0  0
    7.3178   -2.0437   -1.5974 H   0  0  0  0  0  0  0  0  0  0  0  0
    6.8498   -3.0757    1.8559 H   0  0  0  0  0  0  0  0  0  0  0  0
    7.1811   -5.2842    0.0566 H   0  0  0  0  0  0  0  0  0  0  0  0
    8.5952   -4.5080    2.3431 H   0  0  0  0  0  0  0  0  0  0  0  0
    8.7517   -7.1186    1.2700 H   0  0  0  0  0  0  0  0  0  0  0  0
    7.4783   -5.6293    3.8434 H   0  0  0  0  0  0  0  0  0  0  0  0
    8.3564   -7.1315    3.4186 H   0  0  0  0  0  0  0  0  0  0  0  0
  1  2  1  0
  1 36  1  0
  1 37  1  0
  1 38  1  0
  2 35  1  0
  2  3  2  0
  3  4  1  0
  3 39  1  0
  4 33  1  0
  4  5  1  0
  4 40  1  6
  5 20  1  0
  5  6  1  0
  5 41  1  6
  6  7  1  0
  7  8  1  0
  7 19  1  0
  7 42  1  6
  8  9  1  0
  9 10  2  0
  9 11  1  0
 11 17  1  0
 11 12  1  0
 11 43  1  1
 12 13  1  0
 13 18  1  0
 13 14  1  0
 13 44  1  1
 14 15  1  0
 14 45  1  0
 14 46  1  0
 15 16  2  0
 15 17  1  0
 17 18  1  0
 17 47  1  6
 19 20  2  0
 19 48  1  0
 20 21  1  0
 21 30  1  0
 21 22  1  1
 21 23  1  0
 22 49  1  0
 22 50  1  0
 22 51  1  0
 23 24  1  0
 23 25  1  0
 23 52  1  1
 24 53  1  0
 25 26  1  0
 25 54  1  0
 25 55  1  0
 26 27  1  0
 26 56  1  0
 26 57  1  0
 27 28  1  0
 27 29  1  0
 27 30  1  0
 28 58  1  0
 28 59  1  0
 28 60  1  0
 29 61  1  0
 29 62  1  0
 29 63  1  0
 30 31  1  0
 30 64  1  1
 31 32  1  0
 31 33  1  0
 31 65  1  6
 32 66  1  0
 33 34  1  6
 33 35  1  0
 34 67  1  0
 35 68  1  0
 35 69  1  0
M  END
>  <i_m_ct_stereo_status>  (246) 
1

>  <s_m_source_file>  (246) 
/var/tmp/pbs.5076255.sched01/tmppxy1xzy0/80exjuxwr6.sdf

>  <i_m_source_file_index>  (246) 
31

>  <i_lp_mmshare_version>  (246) 
48012

>  <i_f3d_flags>  (246) 
0

>  <s_epik_input>  (246) 
W09IXVtDQEhdMVtDSDJdW0NIMl1DKFtDSDNdKShbQ0gzXSlbQ0BASF0yW0NAQEhdKFtPSF0pW0NAQF0oW09IXSkoW0NIMl1DKFtDSDNdKT1bQ0hdMylbQ0BASF0zW0NASF0oQzRbQ0BdMTJbQ0gzXSlPW0NASF0oW0NIXT00KU9DKD1PKVtDQEhdKE9bQ0BIXTU2KVtDQEhdKE82KUMoPU8pW0NIMl01

>  <s_epik_cmdline>  (246) 
J2VwaWtfcHl0aG9uJywgJy1waHQnLCAnMi4wJywgJy1waCcsICc3LjAnLCAnLXRuJywgJzgnLCAnLW1hJywgJzIwMCcsICctaW1hZScsICc8aW5maWxlLm1hZT4nLCAnLW9tYWUnLCAnPG91dGZpbGUubWFlPic=

>  <r_lp_tautomer_probability>  (246) 
1

>  <r_epik_Ionization_Penalty>  (246) 
2.99795e-07

>  <r_epik_Ionization_Penalty_Charging>  (246) 
0

>  <r_epik_Ionization_Penalty_Neutral>  (246) 
2.99795e-07

>  <r_epik_State_Penalty>  (246) 
-0

>  <r_epik_Charging_Adjusted_Penalty>  (246) 
0

>  <i_epik_Tot_Q>  (246) 
0

>  <i_epik_Tot_abs_Q>  (246) 
0

>  <s_epik_Chemistry_Notes>  (246) 
This compound has an ester and may undergo hydrolysis at high or low pH. This compound contains an acetal/aminal-like group ( X-CH(R)-Y where X, Y are N, S, or O) that may be acid/base labile, releasing an aldehyde.

>  <s_lp_Force_Field>  (246) 
OPLS3e

>  <r_lp_Energy>  (246) 
45.6799

>  <b_lp_Chiralities_Consistent>  (246) 
1

>  <s_lp_Variant>  (246) 
79:0-1

>  <s_i_glide_gridfile>  (246) 
pfpi4k_grid

>  <i_i_glide_lignum>  (246) 
31

>  <i_i_glide_rotatable_bonds>  (246) 
6

>  <r_i_docking_score>  (246) 
-3.3033

>  <r_i_glide_ligand_efficiency>  (246) 
-0.0943799

>  <r_i_glide_ligand_efficiency_sa>  (246) 
-0.308723

>  <r_i_glide_ligand_efficiency_ln>  (246) 
-0.725147

>  <r_i_glide_gscore>  (246) 
-3.3033

>  <r_i_glide_lipo>  (246) 
-0.66595

>  <r_i_glide_hbond>  (246) 
-0.0697653

>  <r_i_glide_metal>  (246) 
-0

>  <r_i_glide_rewards>  (246) 
-0.147238

>  <r_i_glide_evdw>  (246) 
-36.5634

>  <r_i_glide_ecoul>  (246) 
-4.89638

>  <r_i_glide_erotb>  (246) 
0.253723

>  <r_i_glide_esite>  (246) 
-0.111439

>  <r_i_glide_emodel>  (246) 
-44.7313

>  <r_i_glide_energy>  (246) 
-41.4598

>  <r_i_glide_einternal>  (246) 
5.2174

>  <r_i_glide_intrahb_reward>  (246) 
-0

>  <i_i_glide_confnum>  (246) 
2

>  <i_i_glide_posenum>  (246) 
1

>  <r_i_glide_eff_state_penalty>  (246) 
0

>  <ligand_id>  (246) 
79

>  <original_smiles>  (246) 
CC1=CC2C3OC(OC(=O)C4OC5CC(=O)C4O5)C=C3C3(C)C(O)CCC(C)(C)C3C(O)C2(O)C1

>  <smiles>  (246) 
[H]OC1([H])C2([H])C(C([H])([H])[H])(C3=C([H])C([H])(OC(=O)C4([H])OC5([H])OC4([H])C(=O)C5([H])[H])OC3([H])C3([H])C([H])=C(C([H])([H])[H])C([H])([H])C13O[H])C([H])(O[H])C([H])([H])C([H])([H])C2(C([H])([H])[H])C([H])([H])[H]

$$$$
79:0:2
     RDKit          3D

 69 74  0  0  1  0  0  0  0  0999 V2000
    7.7871   -7.6627    1.9643 C   0  0  0  0  0  0  0  0  0  0  0  0
    6.7055   -7.0728    2.8349 C   0  0  0  0  0  0  0  0  0  0  0  0
    6.0721   -5.9054    2.6392 C   0  0  0  0  0  0  0  0  0  0  0  0
    5.0582   -5.6147    3.7135 C   0  0  1  0  0  0  0  0  0  0  0  0
    3.6626   -5.1998    3.2165 C   0  0  1  0  0  0  0  0  0  0  0  0
    3.7897   -4.0016    2.4463 O   0  0  0  0  0  0  0  0  0  0  0  0
    3.1154   -4.1508    1.2244 C   0  0  1  0  0  0  0  0  0  0  0  0
    3.9686   -4.0326    0.1253 O   0  0  0  0  0  0  0  0  0  0  0  0
    4.4331   -2.7908   -0.1473 C   0  0  0  0  0  0  0  0  0  0  0  0
    4.3697   -1.7936    0.5881 O   0  0  0  0  0  0  0  0  0  0  0  0
    5.0175   -2.7330   -1.5688 C   0  0  2  0  0  0  0  0  0  0  0  0
    5.0087   -1.3908   -2.0380 O   0  0  0  0  0  0  0  0  0  0  0  0
    4.3666   -1.4510   -3.2666 C   0  0  2  0  0  0  0  0  0  0  0  0
    2.8681   -1.4707   -3.0648 C   0  0  0  0  0  0  0  0  0  0  0  0
    2.7533   -2.8952   -2.5856 C   0  0  0  0  0  0  0  0  0  0  0  0
    1.7833   -3.4567   -2.0851 O   0  0  0  0  0  0  0  0  0  0  0  0
    4.1728   -3.4115   -2.6651 C   0  0  1  0  0  0  0  0  0  0  0  0
    4.6557   -2.6944   -3.7683 O   0  0  0  0  0  0  0  0  0  0  0  0
    2.5278   -5.5303    1.2449 C   0  0  0  0  0  0  0  0  0  0  0  0
    2.8760   -6.1750    2.3798 C   0  0  0  0  0  0  0  0  0  0  0  0
    2.5420   -7.6182    2.7641 C   0  0  2  0  0  0  0  0  0  0  0  0
    3.6036   -8.5077    2.0634 C   0  0  0  0  0  0  0  0  0  0  0  0
    1.1795   -8.1073    2.1388 C   0  0  1  0  0  0  0  0  0  0  0  0
    1.0837   -9.5202    2.1069 O   0  0  0  0  0  0  0  0  0  0  0  0
   -0.0798   -7.6108    2.8540 C   0  0  0  0  0  0  0  0  0  0  0  0
   -0.0455   -8.0053    4.3313 C   0  0  0  0  0  0  0  0  0  0  0  0
    1.1772   -7.4255    5.0708 C   0  0  0  0  0  0  0  0  0  0  0  0
    0.9612   -5.8966    5.2064 C   0  0  0  0  0  0  0  0  0  0  0  0
    1.1176   -8.0238    6.4997 C   0  0  0  0  0  0  0  0  0  0  0  0
    2.5290   -7.8442    4.3404 C   0  0  2  0  0  0  0  0  0  0  0  0
    3.7969   -7.4519    5.2127 C   0  0  1  0  0  0  0  0  0  0  0  0
    4.1362   -8.5808    6.0065 O   0  0  0  0  0  0  0  0  0  0  0  0
    5.1380   -6.8476    4.6631 C   0  0  2  0  0  0  0  0  0  0  0  0
    5.7889   -6.3308    5.8183 O   0  0  0  0  0  0  0  0  0  0  0  0
    6.1792   -7.8193    4.0348 C   0  0  0  0  0  0  0  0  0  0  0  0
    7.4647   -8.6272    1.5719 H   0  0  0  0  0  0  0  0  0  0  0  0
    8.6927   -7.8260    2.5486 H   0  0  0  0  0  0  0  0  0  0  0  0
    8.0405   -7.0184    1.1213 H   0  0  0  0  0  0  0  0  0  0  0  0
    6.2785   -5.2179    1.8375 H   0  0  0  0  0  0  0  0  0  0  0  0
    5.4463   -4.7260    4.2190 H   0  0  0  0  0  0  0  0  0  0  0  0
    3.0795   -4.9275    4.0880 H   0  0  0  0  0  0  0  0  0  0  0  0
    2.2967   -3.4254    1.1564 H   0  0  0  0  0  0  0  0  0  0  0  0
    6.0417   -3.1091   -1.5800 H   0  0  0  0  0  0  0  0  0  0  0  0
    4.7041   -0.6820   -3.9281 H   0  0  0  0  0  0  0  0  0  0  0  0
    2.5869   -0.7313   -2.3180 H   0  0  0  0  0  0  0  0  0  0  0  0
    2.3461   -1.3436   -4.0074 H   0  0  0  0  0  0  0  0  0  0  0  0
    4.3175   -4.4749   -2.7633 H   0  0  0  0  0  0  0  0  0  0  0  0
    1.9706   -5.9464    0.4347 H   0  0  0  0  0  0  0  0  0  0  0  0
    3.7705   -9.4544    2.5758 H   0  0  0  0  0  0  0  0  0  0  0  0
    4.5497   -8.0061    1.9513 H   0  0  0  0  0  0  0  0  0  0  0  0
    3.3200   -8.7513    1.0378 H   0  0  0  0  0  0  0  0  0  0  0  0
    1.1142   -7.8117    1.0920 H   0  0  0  0  0  0  0  0  0  0  0  0
    0.5269   -9.7682    1.3765 H   0  0  0  0  0  0  0  0  0  0  0  0
   -0.1650   -6.5336    2.7480 H   0  0  0  0  0  0  0  0  0  0  0  0
   -0.9756   -8.0296    2.3915 H   0  0  0  0  0  0  0  0  0  0  0  0
   -0.9697   -7.6883    4.8185 H   0  0  0  0  0  0  0  0  0  0  0  0
   -0.0358   -9.0932    4.4145 H   0  0  0  0  0  0  0  0  0  0  0  0
    1.7151   -5.4115    5.8262 H   0  0  0  0  0  0  0  0  0  0  0  0
   -0.0037   -5.6715    5.6639 H   0  0  0  0  0  0  0  0  0  0  0  0
    0.9577   -5.3931    4.2431 H   0  0  0  0  0  0  0  0  0  0  0  0
    1.8459   -7.5804    7.1790 H   0  0  0  0  0  0  0  0  0  0  0  0
    1.3055   -9.0973    6.4849 H   0  0  0  0  0  0  0  0  0  0  0  0
    0.1392   -7.8804    6.9591 H   0  0  0  0  0  0  0  0  0  0  0  0
    2.4902   -8.9337    4.3999 H   0  0  0  0  0  0  0  0  0  0  0  0
    3.4572   -6.7064    5.9286 H   0  0  0  0  0  0  0  0  0  0  0  0
    4.3739   -9.2985    5.4397 H   0  0  0  0  0  0  0  0  0  0  0  0
    6.6378   -6.0027    5.5686 H   0  0  0  0  0  0  0  0  0  0  0  0
    5.7323   -8.7577    3.7107 H   0  0  0  0  0  0  0  0  0  0  0  0
    7.0053   -8.0677    4.7070 H   0  0  0  0  0  0  0  0  0  0  0  0
  1  2  1  0
  1 36  1  0
  1 37  1  0
  1 38  1  0
  2 35  1  0
  2  3  2  0
  3  4  1  0
  3 39  1  0
  4 33  1  0
  4  5  1  0
  4 40  1  1
  5 20  1  0
  5  6  1  0
  5 41  1  1
  6  7  1  0
  7  8  1  0
  7 19  1  0
  7 42  1  6
  8  9  1  0
  9 10  2  0
  9 11  1  0
 11 17  1  0
 11 12  1  0
 11 43  1  1
 12 13  1  0
 13 18  1  0
 13 14  1  0
 13 44  1  6
 14 15  1  0
 14 45  1  0
 14 46  1  0
 15 16  2  0
 15 17  1  0
 17 18  1  0
 17 47  1  6
 19 20  2  0
 19 48  1  0
 20 21  1  0
 21 30  1  0
 21 22  1  6
 21 23  1  0
 22 49  1  0
 22 50  1  0
 22 51  1  0
 23 24  1  0
 23 25  1  0
 23 52  1  6
 24 53  1  0
 25 26  1  0
 25 54  1  0
 25 55  1  0
 26 27  1  0
 26 56  1  0
 26 57  1  0
 27 28  1  0
 27 29  1  0
 27 30  1  0
 28 58  1  0
 28 59  1  0
 28 60  1  0
 29 61  1  0
 29 62  1  0
 29 63  1  0
 30 31  1  0
 30 64  1  6
 31 32  1  0
 31 33  1  0
 31 65  1  1
 32 66  1  0
 33 34  1  1
 33 35  1  0
 34 67  1  0
 35 68  1  0
 35 69  1  0
M  END
>  <i_m_ct_stereo_status>  (247) 
1

>  <s_m_source_file>  (247) 
/var/tmp/pbs.5076255.sched01/tmppxy1xzy0/80exjuxwr6.sdf

>  <i_m_source_file_index>  (247) 
31

>  <i_lp_mmshare_version>  (247) 
48012

>  <i_f3d_flags>  (247) 
0

>  <s_epik_input>  (247) 
W09IXVtDQEhdMVtDSDJdW0NIMl1DKFtDSDNdKShbQ0gzXSlbQ0BASF0yW0NAQEhdKFtPSF0pW0NAQF0oW09IXSkoW0NIMl1DKFtDSDNdKT1bQ0hdMylbQ0BASF0zW0NASF0oQzRbQ0BdMTJbQ0gzXSlPW0NASF0oW0NIXT00KU9DKD1PKVtDQEhdKE9bQ0BIXTU2KVtDQEhdKE82KUMoPU8pW0NIMl01

>  <s_epik_cmdline>  (247) 
J2VwaWtfcHl0aG9uJywgJy1waHQnLCAnMi4wJywgJy1waCcsICc3LjAnLCAnLXRuJywgJzgnLCAnLW1hJywgJzIwMCcsICctaW1hZScsICc8aW5maWxlLm1hZT4nLCAnLW9tYWUnLCAnPG91dGZpbGUubWFlPic=

>  <r_lp_tautomer_probability>  (247) 
1

>  <r_epik_Ionization_Penalty>  (247) 
2.99795e-07

>  <r_epik_Ionization_Penalty_Charging>  (247) 
0

>  <r_epik_Ionization_Penalty_Neutral>  (247) 
2.99795e-07

>  <r_epik_State_Penalty>  (247) 
-0

>  <r_epik_Charging_Adjusted_Penalty>  (247) 
0

>  <i_epik_Tot_Q>  (247) 
0

>  <i_epik_Tot_abs_Q>  (247) 
0

>  <s_epik_Chemistry_Notes>  (247) 
This compound has an ester and may undergo hydrolysis at high or low pH. This compound contains an acetal/aminal-like group ( X-CH(R)-Y where X, Y are N, S, or O) that may be acid/base labile, releasing an aldehyde.

>  <s_lp_Force_Field>  (247) 
OPLS3e

>  <r_lp_Energy>  (247) 
45.6799

>  <b_lp_Chiralities_Consistent>  (247) 
1

>  <s_lp_Variant>  (247) 
79:0-1

>  <s_i_glide_gridfile>  (247) 
pfpi4k_grid

>  <i_i_glide_lignum>  (247) 
31

>  <i_i_glide_rotatable_bonds>  (247) 
6

>  <r_i_docking_score>  (247) 
-2.52757

>  <r_i_glide_ligand_efficiency>  (247) 
-0.0722161

>  <r_i_glide_ligand_efficiency_sa>  (247) 
-0.236224

>  <r_i_glide_ligand_efficiency_ln>  (247) 
-0.554857

>  <r_i_glide_gscore>  (247) 
-2.52757

>  <r_i_glide_lipo>  (247) 
-0.0306855

>  <r_i_glide_hbond>  (247) 
-0.32712

>  <r_i_glide_metal>  (247) 
-0

>  <r_i_glide_rewards>  (247) 
-0.161853

>  <r_i_glide_evdw>  (247) 
-34.148

>  <r_i_glide_ecoul>  (247) 
-3.53725

>  <r_i_glide_erotb>  (247) 
0.253723

>  <r_i_glide_esite>  (247) 
-0.0236417

>  <r_i_glide_emodel>  (247) 
-42.5273

>  <r_i_glide_energy>  (247) 
-37.6852

>  <r_i_glide_einternal>  (247) 
2.12341

>  <r_i_glide_intrahb_reward>  (247) 
-0

>  <i_i_glide_confnum>  (247) 
1

>  <i_i_glide_posenum>  (247) 
30

>  <r_i_glide_eff_state_penalty>  (247) 
0

>  <ligand_id>  (247) 
79

>  <original_smiles>  (247) 
CC1=CC2C3OC(OC(=O)C4OC5CC(=O)C4O5)C=C3C3(C)C(O)CCC(C)(C)C3C(O)C2(O)C1

>  <smiles>  (247) 
[H]OC1([H])C2([H])C(C([H])([H])[H])(C3=C([H])C([H])(OC(=O)C4([H])OC5([H])OC4([H])C(=O)C5([H])[H])OC3([H])C3([H])C([H])=C(C([H])([H])[H])C([H])([H])C13O[H])C([H])(O[H])C([H])([H])C([H])([H])C2(C([H])([H])[H])C([H])([H])[H]

$$$$
81:0:0
     RDKit          3D

 73 78  0  0  1  0  0  0  0  0999 V2000
    4.4933   -6.8680    6.6930 C   0  0  0  0  0  0  0  0  0  0  0  0
    3.8720   -7.6472    5.5122 C   0  0  2  0  0  0  0  0  0  0  0  0
    4.9243   -8.4811    5.0068 O   0  0  0  0  0  0  0  0  0  0  0  0
    5.3640   -8.0342    3.7214 C   0  0  2  0  0  0  0  0  0  0  0  0
    6.8833   -8.1621    3.7496 C   0  0  0  0  0  0  0  0  0  0  0  0
    4.7270   -6.6413    3.5726 C   0  0  0  0  0  0  0  0  0  0  0  0
    5.1122   -5.4774    2.9827 C   0  0  0  0  0  0  0  0  0  0  0  0
    6.4164   -5.3121    2.2752 C   0  0  0  0  0  0  0  0  0  0  0  0
    6.2409   -4.7081    0.8907 C   0  0  1  0  0  0  0  0  0  0  0  0
    5.9668   -5.8717    0.2051 O   0  0  0  0  0  0  0  0  0  0  0  0
    5.0468   -3.7194    0.6962 C   0  0  2  0  0  0  0  0  0  0  0  0
    5.2220   -2.7262   -0.4988 C   0  0  0  0  0  0  0  0  0  0  0  0
    6.3297   -1.6892   -0.2534 C   0  0  0  0  0  0  0  0  0  0  0  0
    5.5307   -3.4594   -1.8219 C   0  0  0  0  0  0  0  0  0  0  0  0
    3.9213   -1.9662   -0.6751 C   0  0  0  0  0  0  0  0  0  0  0  0
    3.6389   -1.4975   -1.7916 O   0  0  0  0  0  0  0  0  0  0  0  0
    3.0664   -1.7219    0.5030 C   0  0  0  0  0  0  0  0  0  0  0  0
    3.3314   -2.2635    1.7155 C   0  0  0  0  0  0  0  0  0  0  0  0
    4.5278   -3.1204    2.0309 C   0  0  2  0  0  0  0  0  0  0  0  0
    5.4909   -2.1780    2.7705 C   0  0  0  0  0  0  0  0  0  0  0  0
    4.2171   -4.3007    2.9661 C   0  0  0  0  0  0  0  0  0  0  0  0
    3.1289   -4.3029    3.7615 C   0  0  0  0  0  0  0  0  0  0  0  0
    2.7640   -5.4298    4.6826 C   0  0  0  0  0  0  0  0  0  0  0  0
    3.4221   -6.8099    4.2849 C   0  0  2  0  0  0  0  0  0  0  0  0
    2.5561   -7.7190    3.3323 C   0  0  1  0  0  0  0  0  0  0  0  0
    2.2874   -6.9766    2.1258 O   0  0  0  0  0  0  0  0  0  0  0  0
    1.0565   -6.8036    1.5705 C   0  0  0  0  0  0  0  0  0  0  0  0
    0.9010   -6.2683    0.4701 O   0  0  0  0  0  0  0  0  0  0  0  0
   -0.0967   -7.3566    2.3325 C   0  0  0  0  0  0  0  0  0  0  0  0
   -1.0516   -8.1278    1.6831 C   0  0  0  0  0  0  0  0  0  0  0  0
   -2.0752   -8.7707    2.4227 C   0  0  0  0  0  0  0  0  0  0  0  0
   -2.0553   -8.6125    3.8273 C   0  0  0  0  0  0  0  0  0  0  0  0
   -1.2516   -7.7650    4.4356 N   0  0  0  0  0  0  0  0  0  0  0  0
   -0.2666   -7.1657    3.7310 C   0  0  0  0  0  0  0  0  0  0  0  0
    3.1902   -9.0767    2.9703 C   0  0  1  0  0  0  0  0  0  0  0  0
    2.4246   -9.8004    2.0129 O   0  0  0  0  0  0  0  0  0  0  0  0
    4.7085   -9.0331    2.7160 C   0  0  1  0  0  0  0  0  0  0  0  0
    4.9096   -8.6219    1.3729 O   0  0  0  0  0  0  0  0  0  0  0  0
    3.7436   -6.3532    7.2936 H   0  0  0  0  0  0  0  0  0  0  0  0
    5.2158   -6.1305    6.3472 H   0  0  0  0  0  0  0  0  0  0  0  0
    5.0166   -7.5420    7.3678 H   0  0  0  0  0  0  0  0  0  0  0  0
    3.0590   -8.2651    5.8996 H   0  0  0  0  0  0  0  0  0  0  0  0
    7.3024   -8.1655    2.7482 H   0  0  0  0  0  0  0  0  0  0  0  0
    7.1516   -9.1161    4.1933 H   0  0  0  0  0  0  0  0  0  0  0  0
    7.3333   -7.3782    4.3512 H   0  0  0  0  0  0  0  0  0  0  0  0
    6.9974   -4.6656    2.8934 H   0  0  0  0  0  0  0  0  0  0  0  0
    7.0489   -6.1873    2.2536 H   0  0  0  0  0  0  0  0  0  0  0  0
    7.1822   -4.3156    0.5354 H   0  0  0  0  0  0  0  0  0  0  0  0
    5.1326   -6.2551    0.3910 H   0  0  0  0  0  0  0  0  0  0  0  0
    4.2139   -4.3488    0.3729 H   0  0  0  0  0  0  0  0  0  0  0  0
    7.2459   -2.1213    0.1528 H   0  0  0  0  0  0  0  0  0  0  0  0
    6.0287   -0.8791    0.4054 H   0  0  0  0  0  0  0  0  0  0  0  0
    6.5510   -1.2061   -1.1984 H   0  0  0  0  0  0  0  0  0  0  0  0
    6.5194   -3.8978   -1.7769 H   0  0  0  0  0  0  0  0  0  0  0  0
    5.5469   -2.8197   -2.7093 H   0  0  0  0  0  0  0  0  0  0  0  0
    4.8063   -4.2525   -2.0138 H   0  0  0  0  0  0  0  0  0  0  0  0
    2.2516   -1.0329    0.4852 H   0  0  0  0  0  0  0  0  0  0  0  0
    2.6631   -1.9609    2.5073 H   0  0  0  0  0  0  0  0  0  0  0  0
    5.2877   -2.1648    3.8436 H   0  0  0  0  0  0  0  0  0  0  0  0
    5.4289   -1.1436    2.4418 H   0  0  0  0  0  0  0  0  0  0  0  0
    6.5160   -2.4842    2.6067 H   0  0  0  0  0  0  0  0  0  0  0  0
    2.4211   -3.4920    3.7970 H   0  0  0  0  0  0  0  0  0  0  0  0
    3.0200   -5.1185    5.6935 H   0  0  0  0  0  0  0  0  0  0  0  0
    1.6966   -5.3733    4.6987 H   0  0  0  0  0  0  0  0  0  0  0  0
    1.7238   -8.0935    3.8874 H   0  0  0  0  0  0  0  0  0  0  0  0
   -0.9903   -8.2604    0.5996 H   0  0  0  0  0  0  0  0  0  0  0  0
   -2.8566   -9.3548    1.9773 H   0  0  0  0  0  0  0  0  0  0  0  0
   -2.7478   -9.1165    4.4913 H   0  0  0  0  0  0  0  0  0  0  0  0
    0.3955   -6.6179    4.3410 H   0  0  0  0  0  0  0  0  0  0  0  0
    3.0512   -9.6746    3.8716 H   0  0  0  0  0  0  0  0  0  0  0  0
    1.5708   -9.9836    2.3711 H   0  0  0  0  0  0  0  0  0  0  0  0
    5.0996  -10.0532    2.8526 H   0  0  0  0  0  0  0  0  0  0  0  0
    4.5334   -9.3050    0.8424 H   0  0  0  0  0  0  0  0  0  0  0  0
  1  2  1  0
  1 39  1  0
  1 40  1  0
  1 41  1  0
  2 24  1  0
  2  3  1  0
  2 42  1  1
  3  4  1  0
  4 37  1  0
  4  5  1  1
  4  6  1  0
  5 43  1  0
  5 44  1  0
  5 45  1  0
  6 24  1  0
  6  7  2  0
  7 21  1  0
  7  8  1  0
  8  9  1  0
  8 46  1  0
  8 47  1  0
  9 10  1  0
  9 11  1  0
  9 48  1  6
 10 49  1  0
 11 19  1  0
 11 12  1  0
 11 50  1  6
 12 13  1  0
 12 14  1  0
 12 15  1  0
 13 51  1  0
 13 52  1  0
 13 53  1  0
 14 54  1  0
 14 55  1  0
 14 56  1  0
 15 16  2  0
 15 17  1  0
 17 18  2  0
 17 57  1  0
 18 19  1  0
 18 58  1  0
 19 20  1  1
 19 21  1  0
 20 59  1  0
 20 60  1  0
 20 61  1  0
 21 22  2  0
 22 23  1  0
 22 62  1  0
 24 23  1  1
 23 63  1  0
 23 64  1  0
 24 25  1  0
 25 26  1  0
 25 35  1  0
 25 65  1  1
 26 27  1  0
 27 28  2  0
 27 29  1  0
 29 34  1  0
 29 30  2  0
 30 31  1  0
 30 66  1  0
 31 32  2  0
 31 67  1  0
 32 33  1  0
 32 68  1  0
 33 34  2  0
 34 69  1  0
 35 36  1  0
 35 37  1  0
 35 70  1  1
 36 71  1  0
 37 38  1  0
 37 72  1  6
 38 73  1  0
M  END
>  <i_m_ct_stereo_status>  (248) 
1

>  <s_m_source_file>  (248) 
/var/tmp/pbs.5076255.sched01/tmppxy1xzy0/80exjuxwr6.sdf

>  <i_m_source_file_index>  (248) 
33

>  <i_lp_mmshare_version>  (248) 
48012

>  <i_f3d_flags>  (248) 
0

>  <s_epik_input>  (248) 
W0NIXTE9W0NIXUMoPU8pQyhbQ0gzXSkoW0NIM10pW0NAQEhdKFtDQEBIXShbQ0gyXTIpW09IXSlbQ0BdMShbQ0gzXSlDKD1bQ0hdW0NIMl0zKUMyPUMoW0NAXTM0NSlbQ0BAXShbQ0gzXSkoT1tDQEhdNFtDSDNdKVtDQEhdKFtPSF0pW0NASF0oW09IXSlbQ0BASF01T0MoPU8pYzZbY0hdW2NIXVtjSF1uW2NIXTY=

>  <s_epik_cmdline>  (248) 
J2VwaWtfcHl0aG9uJywgJy1waHQnLCAnMi4wJywgJy1waCcsICc3LjAnLCAnLXRuJywgJzgnLCAnLW1hJywgJzIwMCcsICctaW1hZScsICc8aW5maWxlLm1hZT4nLCAnLW9tYWUnLCAnPG91dGZpbGUubWFlPic=

>  <r_lp_tautomer_probability>  (248) 
1

>  <r_epik_Ionization_Penalty>  (248) 
0.000122883

>  <r_epik_Ionization_Penalty_Charging>  (248) 
0

>  <r_epik_Ionization_Penalty_Neutral>  (248) 
0.000122883

>  <r_epik_State_Penalty>  (248) 
-0

>  <r_epik_Charging_Adjusted_Penalty>  (248) 
0

>  <i_epik_Tot_Q>  (248) 
0

>  <i_epik_Tot_abs_Q>  (248) 
0

>  <s_epik_Chemistry_Notes>  (248) 
This compound has an ester and may undergo hydrolysis at high or low pH.

>  <s_lp_Force_Field>  (248) 
OPLS3e

>  <r_lp_Energy>  (248) 
53.9993

>  <b_lp_Chiralities_Consistent>  (248) 
1

>  <s_lp_Variant>  (248) 
81:0-1

>  <s_i_glide_gridfile>  (248) 
pfpi4k_grid

>  <i_i_glide_lignum>  (248) 
33

>  <i_i_glide_rotatable_bonds>  (248) 
6

>  <r_i_docking_score>  (248) 
-2.08236

>  <r_i_glide_ligand_efficiency>  (248) 
-0.0547989

>  <r_i_glide_ligand_efficiency_sa>  (248) 
-0.184233

>  <r_i_glide_ligand_efficiency_ln>  (248) 
-0.449018

>  <r_i_glide_gscore>  (248) 
-2.08236

>  <r_i_glide_lipo>  (248) 
-0.60254

>  <r_i_glide_hbond>  (248) 
-0.220791

>  <r_i_glide_metal>  (248) 
-0

>  <r_i_glide_rewards>  (248) 
0

>  <r_i_glide_evdw>  (248) 
-22.7457

>  <r_i_glide_ecoul>  (248) 
-5.07909

>  <r_i_glide_erotb>  (248) 
0.226692

>  <r_i_glide_esite>  (248) 
-0.113036

>  <r_i_glide_emodel>  (248) 
-21.0795

>  <r_i_glide_energy>  (248) 
-27.8248

>  <r_i_glide_einternal>  (248) 
6.39877

>  <r_i_glide_intrahb_reward>  (248) 
-0

>  <i_i_glide_confnum>  (248) 
2

>  <i_i_glide_posenum>  (248) 
5

>  <r_i_glide_eff_state_penalty>  (248) 
0

>  <ligand_id>  (248) 
81

>  <original_smiles>  (248) 
CC1OC2(C)C3=C4CC(O)C5C(C)(C)C(=O)C=CC5(C)C4=CCC31C(OC(=O)c1cccnc1)C(O)C2O

>  <smiles>  (248) 
[H]OC1([H])C([H])(O[H])C2(C([H])([H])[H])OC([H])(C([H])([H])[H])C3(C2=C2C(=C([H])C3([H])[H])C3(C([H])([H])[H])C([H])=C([H])C(=O)C(C([H])([H])[H])(C([H])([H])[H])C3([H])C([H])(O[H])C2([H])[H])C1([H])OC(=O)c1c([H])nc([H])c([H])c1[H]

$$$$
83:0:0
     RDKit          3D

 44 47  0  0  1  0  0  0  0  0999 V2000
    2.4216   -3.0697   -3.4826 C   0  0  0  0  0  0  0  0  0  0  0  0
    3.2102   -2.4356   -2.3261 C   0  0  2  0  0  0  0  0  0  0  0  0
    4.4992   -1.8215   -2.8588 C   0  0  0  0  0  0  0  0  0  0  0  0
    5.2363   -1.0919   -1.7335 C   0  0  0  0  0  0  0  0  0  0  0  0
    5.5767   -1.9748   -0.5346 C   0  0  1  0  0  0  0  0  0  0  0  0
    6.1981   -1.1747    0.4680 O   0  0  0  0  0  0  0  0  0  0  0  0
    6.1720   -1.9094    1.7695 O   0  0  0  0  0  0  0  0  0  0  0  0
    5.0030   -1.4991    2.4912 C   0  0  2  0  0  0  0  0  0  0  0  0
    5.4265   -0.3611    3.4254 C   0  0  0  0  0  0  0  0  0  0  0  0
    4.3998   -2.6513    3.3432 C   0  0  0  0  0  0  0  0  0  0  0  0
    3.3657   -3.6316    2.7207 C   0  0  0  0  0  0  0  0  0  0  0  0
    3.8709   -4.5076    1.5384 C   0  0  1  0  0  0  0  0  0  0  0  0
    4.6940   -5.6865    2.0646 C   0  0  0  0  0  0  0  0  0  0  0  0
    2.7190   -5.0294    0.6267 C   0  0  0  0  0  0  0  0  0  0  0  0
    2.3197   -4.0774   -0.5184 C   0  0  0  0  0  0  0  0  0  0  0  0
    3.5465   -3.4052   -1.1509 C   0  0  2  0  0  0  0  0  0  0  0  0
    4.3083   -2.7138   -0.0264 C   0  0  2  0  0  0  0  0  0  0  0  0
    3.3915   -1.8290    0.6739 O   0  0  0  0  0  0  0  0  0  0  0  0
    4.0605   -0.8489    1.5861 O   0  0  0  0  0  0  0  0  0  0  0  0
    4.8121   -3.7979    0.7674 O   0  0  0  0  0  0  0  0  0  0  0  0
    2.9396   -3.9362   -3.8987 H   0  0  0  0  0  0  0  0  0  0  0  0
    2.2503   -2.3705   -4.3084 H   0  0  0  0  0  0  0  0  0  0  0  0
    1.4437   -3.4006   -3.1397 H   0  0  0  0  0  0  0  0  0  0  0  0
    2.6139   -1.6088   -1.9293 H   0  0  0  0  0  0  0  0  0  0  0  0
    5.1365   -2.5932   -3.2979 H   0  0  0  0  0  0  0  0  0  0  0  0
    4.2722   -1.1100   -3.6552 H   0  0  0  0  0  0  0  0  0  0  0  0
    6.1572   -0.6998   -2.1429 H   0  0  0  0  0  0  0  0  0  0  0  0
    4.6456   -0.2397   -1.3999 H   0  0  0  0  0  0  0  0  0  0  0  0
    6.2887   -2.7436   -0.8532 H   0  0  0  0  0  0  0  0  0  0  0  0
    5.8501    0.4842    2.8814 H   0  0  0  0  0  0  0  0  0  0  0  0
    6.1780   -0.6748    4.1548 H   0  0  0  0  0  0  0  0  0  0  0  0
    4.5741    0.0186    4.0036 H   0  0  0  0  0  0  0  0  0  0  0  0
    5.2256   -3.2268    3.7734 H   0  0  0  0  0  0  0  0  0  0  0  0
    3.8982   -2.2138    4.2107 H   0  0  0  0  0  0  0  0  0  0  0  0
    2.9999   -4.2960    3.5081 H   0  0  0  0  0  0  0  0  0  0  0  0
    2.4830   -3.0614    2.4395 H   0  0  0  0  0  0  0  0  0  0  0  0
    4.0948   -6.3742    2.6632 H   0  0  0  0  0  0  0  0  0  0  0  0
    5.5351   -5.3501    2.6755 H   0  0  0  0  0  0  0  0  0  0  0  0
    5.1164   -6.2544    1.2345 H   0  0  0  0  0  0  0  0  0  0  0  0
    3.0400   -5.9675    0.1704 H   0  0  0  0  0  0  0  0  0  0  0  0
    1.8531   -5.2851    1.2371 H   0  0  0  0  0  0  0  0  0  0  0  0
    1.7571   -4.6433   -1.2568 H   0  0  0  0  0  0  0  0  0  0  0  0
    1.6682   -3.2792   -0.1662 H   0  0  0  0  0  0  0  0  0  0  0  0
    4.1772   -4.1960   -1.5689 H   0  0  0  0  0  0  0  0  0  0  0  0
  1  2  1  0
  1 21  1  0
  1 22  1  0
  1 23  1  0
  2 16  1  0
  2  3  1  0
  2 24  1  1
  3  4  1  0
  3 25  1  0
  3 26  1  0
  4  5  1  0
  4 27  1  0
  4 28  1  0
  5 17  1  0
  5  6  1  0
  5 29  1  6
  6  7  1  0
  7  8  1  0
  8 19  1  0
  8  9  1  1
  8 10  1  0
  9 30  1  0
  9 31  1  0
  9 32  1  0
 10 11  1  0
 10 33  1  0
 10 34  1  0
 11 12  1  0
 11 35  1  0
 11 36  1  0
 12 20  1  0
 12 13  1  1
 12 14  1  0
 13 37  1  0
 13 38  1  0
 13 39  1  0
 14 15  1  0
 14 40  1  0
 14 41  1  0
 15 16  1  0
 15 42  1  0
 15 43  1  0
 16 17  1  0
 16 44  1  6
 17 18  1  1
 17 20  1  0
 18 19  1  0
M  END
>  <i_m_ct_stereo_status>  (249) 
1

>  <s_m_source_file>  (249) 
/var/tmp/pbs.5076255.sched01/tmppxy1xzy0/80exjuxwr6.sdf

>  <i_m_source_file_index>  (249) 
35

>  <i_lp_mmshare_version>  (249) 
48012

>  <i_f3d_flags>  (249) 
0

>  <s_epik_input>  (249) 
W0NAQF0xMjNbQ0BIXTRbQ0gyXVtDSDJdW0NAQEhdKFtDSDNdKVtDQEBIXTFbQ0gyXVtDSDJdW0NAXShPMykoW0NIM10pW0NIMl1bQ0gyXVtDQF0oT080KShbQ0gzXSlPTzI=

>  <s_epik_cmdline>  (249) 
J2VwaWtfcHl0aG9uJywgJy1waHQnLCAnMi4wJywgJy1waCcsICc3LjAnLCAnLXRuJywgJzgnLCAnLW1hJywgJzIwMCcsICctaW1hZScsICc8aW5maWxlLm1hZT4nLCAnLW9tYWUnLCAnPG91dGZpbGUubWFlPic=

>  <r_lp_tautomer_probability>  (249) 
1

>  <r_epik_Ionization_Penalty>  (249) 
1.10509e-14

>  <r_epik_Ionization_Penalty_Charging>  (249) 
0

>  <r_epik_Ionization_Penalty_Neutral>  (249) 
1.10509e-14

>  <r_epik_State_Penalty>  (249) 
-0

>  <r_epik_Charging_Adjusted_Penalty>  (249) 
0

>  <i_epik_Tot_Q>  (249) 
0

>  <i_epik_Tot_abs_Q>  (249) 
0

>  <s_lp_Force_Field>  (249) 
OPLS3e

>  <r_lp_Energy>  (249) 
26.3744

>  <b_lp_Chiralities_Consistent>  (249) 
1

>  <s_lp_Variant>  (249) 
83:0-1

>  <s_i_glide_gridfile>  (249) 
pfpi4k_grid

>  <i_i_glide_lignum>  (249) 
35

>  <i_i_glide_rotatable_bonds>  (249) 
0

>  <r_i_docking_score>  (249) 
-3.02999

>  <r_i_glide_ligand_efficiency>  (249) 
-0.151499

>  <r_i_glide_ligand_efficiency_sa>  (249) 
-0.411233

>  <r_i_glide_ligand_efficiency_ln>  (249) 
-0.758306

>  <r_i_glide_gscore>  (249) 
-3.02999

>  <r_i_glide_lipo>  (249) 
-0.488404

>  <r_i_glide_hbond>  (249) 
0

>  <r_i_glide_metal>  (249) 
-0

>  <r_i_glide_rewards>  (249) 
-1.58699

>  <r_i_glide_evdw>  (249) 
-21.0317

>  <r_i_glide_ecoul>  (249) 
0.671084

>  <r_i_glide_erotb>  (249) 
0

>  <r_i_glide_esite>  (249) 
-0.0036703

>  <r_i_glide_emodel>  (249) 
-23.6634

>  <r_i_glide_energy>  (249) 
-20.3606

>  <r_i_glide_einternal>  (249) 
0

>  <r_i_glide_intrahb_reward>  (249) 
-0

>  <i_i_glide_confnum>  (249) 
1

>  <i_i_glide_posenum>  (249) 
29

>  <r_i_glide_eff_state_penalty>  (249) 
0

>  <ligand_id>  (249) 
83

>  <original_smiles>  (249) 
CC1CCC2OOC3(C)CCC4(C)CCC1C2(OO3)O4

>  <smiles>  (249) 
[H]C([H])([H])C12OOC3([H])C([H])([H])C([H])([H])C([H])(C([H])([H])[H])C4([H])C([H])([H])C([H])([H])C(C([H])([H])[H])(OC34OO1)C([H])([H])C2([H])[H]

$$$$
83:0:1
     RDKit          3D

 44 47  0  0  1  0  0  0  0  0999 V2000
    4.6246   -3.3038   -2.6254 C   0  0  0  0  0  0  0  0  0  0  0  0
    4.4608   -2.8270   -1.1704 C   0  0  2  0  0  0  0  0  0  0  0  0
    5.0451   -1.4076   -1.0094 C   0  0  0  0  0  0  0  0  0  0  0  0
    4.8504   -0.8537    0.4125 C   0  0  0  0  0  0  0  0  0  0  0  0
    5.4390   -1.7888    1.4860 C   0  0  1  0  0  0  0  0  0  0  0  0
    5.1463   -1.2381    2.7705 O   0  0  0  0  0  0  0  0  0  0  0  0
    5.3294   -2.2945    3.8437 O   0  0  0  0  0  0  0  0  0  0  0  0
    4.0911   -2.9619    4.0419 C   0  0  2  0  0  0  0  0  0  0  0  0
    3.4337   -2.2548    5.2438 C   0  0  0  0  0  0  0  0  0  0  0  0
    4.2963   -4.4640    4.4003 C   0  0  0  0  0  0  0  0  0  0  0  0
    4.3805   -5.5263    3.2668 C   0  0  0  0  0  0  0  0  0  0  0  0
    5.5749   -5.3949    2.2764 C   0  0  1  0  0  0  0  0  0  0  0  0
    6.8582   -5.9545    2.9157 C   0  0  0  0  0  0  0  0  0  0  0  0
    5.3217   -6.0973    0.9181 C   0  0  0  0  0  0  0  0  0  0  0  0
    4.6100   -5.2305   -0.1433 C   0  0  0  0  0  0  0  0  0  0  0  0
    5.1174   -3.7713   -0.1233 C   0  0  2  0  0  0  0  0  0  0  0  0
    4.9569   -3.2465    1.3183 C   0  0  2  0  0  0  0  0  0  0  0  0
    3.5792   -3.4330    1.6895 O   0  0  0  0  0  0  0  0  0  0  0  0
    3.1795   -2.7171    2.9699 O   0  0  0  0  0  0  0  0  0  0  0  0
    5.8850   -4.0341    2.0554 O   0  0  0  0  0  0  0  0  0  0  0  0
    5.6720   -3.4352   -2.8993 H   0  0  0  0  0  0  0  0  0  0  0  0
    4.1858   -2.5877   -3.3159 H   0  0  0  0  0  0  0  0  0  0  0  0
    4.1215   -4.2537   -2.7945 H   0  0  0  0  0  0  0  0  0  0  0  0
    3.3885   -2.7690   -0.9566 H   0  0  0  0  0  0  0  0  0  0  0  0
    6.1082   -1.4237   -1.2640 H   0  0  0  0  0  0  0  0  0  0  0  0
    4.5720   -0.7313   -1.7211 H   0  0  0  0  0  0  0  0  0  0  0  0
    5.3135    0.1362    0.4924 H   0  0  0  0  0  0  0  0  0  0  0  0
    3.7800   -0.7162    0.6003 H   0  0  0  0  0  0  0  0  0  0  0  0
    6.5250   -1.7768    1.3960 H   0  0  0  0  0  0  0  0  0  0  0  0
    3.2599   -1.1946    5.0431 H   0  0  0  0  0  0  0  0  0  0  0  0
    4.0526   -2.3375    6.1442 H   0  0  0  0  0  0  0  0  0  0  0  0
    2.4647   -2.7114    5.4694 H   0  0  0  0  0  0  0  0  0  0  0  0
    5.1818   -4.5546    5.0348 H   0  0  0  0  0  0  0  0  0  0  0  0
    3.4687   -4.7875    5.0382 H   0  0  0  0  0  0  0  0  0  0  0  0
    4.4226   -6.5184    3.7229 H   0  0  0  0  0  0  0  0  0  0  0  0
    3.4286   -5.5359    2.7317 H   0  0  0  0  0  0  0  0  0  0  0  0
    6.7850   -7.0258    3.0980 H   0  0  0  0  0  0  0  0  0  0  0  0
    7.0818   -5.4623    3.8613 H   0  0  0  0  0  0  0  0  0  0  0  0
    7.7120   -5.7840    2.2552 H   0  0  0  0  0  0  0  0  0  0  0  0
    6.2802   -6.3904    0.4907 H   0  0  0  0  0  0  0  0  0  0  0  0
    4.7653   -7.0233    1.0661 H   0  0  0  0  0  0  0  0  0  0  0  0
    4.7929   -5.6728   -1.1212 H   0  0  0  0  0  0  0  0  0  0  0  0
    3.5305   -5.2530    0.0082 H   0  0  0  0  0  0  0  0  0  0  0  0
    6.1878   -3.7931   -0.3473 H   0  0  0  0  0  0  0  0  0  0  0  0
  1  2  1  0
  1 21  1  0
  1 22  1  0
  1 23  1  0
  2 16  1  0
  2  3  1  0
  2 24  1  1
  3  4  1  0
  3 25  1  0
  3 26  1  0
  4  5  1  0
  4 27  1  0
  4 28  1  0
  5 17  1  0
  5  6  1  0
  5 29  1  6
  6  7  1  0
  7  8  1  0
  8 19  1  0
  8  9  1  1
  8 10  1  0
  9 30  1  0
  9 31  1  0
  9 32  1  0
 10 11  1  0
 10 33  1  0
 10 34  1  0
 11 12  1  0
 11 35  1  0
 11 36  1  0
 12 20  1  0
 12 13  1  1
 12 14  1  0
 13 37  1  0
 13 38  1  0
 13 39  1  0
 14 15  1  0
 14 40  1  0
 14 41  1  0
 15 16  1  0
 15 42  1  0
 15 43  1  0
 16 17  1  0
 16 44  1  6
 17 18  1  1
 17 20  1  0
 18 19  1  0
M  END
>  <i_m_ct_stereo_status>  (250) 
1

>  <s_m_source_file>  (250) 
/var/tmp/pbs.5076255.sched01/tmppxy1xzy0/80exjuxwr6.sdf

>  <i_m_source_file_index>  (250) 
35

>  <i_lp_mmshare_version>  (250) 
48012

>  <i_f3d_flags>  (250) 
0

>  <s_epik_input>  (250) 
W0NAQF0xMjNbQ0BIXTRbQ0gyXVtDSDJdW0NAQEhdKFtDSDNdKVtDQEBIXTFbQ0gyXVtDSDJdW0NAXShPMykoW0NIM10pW0NIMl1bQ0gyXVtDQF0oT080KShbQ0gzXSlPTzI=

>  <s_epik_cmdline>  (250) 
J2VwaWtfcHl0aG9uJywgJy1waHQnLCAnMi4wJywgJy1waCcsICc3LjAnLCAnLXRuJywgJzgnLCAnLW1hJywgJzIwMCcsICctaW1hZScsICc8aW5maWxlLm1hZT4nLCAnLW9tYWUnLCAnPG91dGZpbGUubWFlPic=

>  <r_lp_tautomer_probability>  (250) 
1

>  <r_epik_Ionization_Penalty>  (250) 
1.10509e-14

>  <r_epik_Ionization_Penalty_Charging>  (250) 
0

>  <r_epik_Ionization_Penalty_Neutral>  (250) 
1.10509e-14

>  <r_epik_State_Penalty>  (250) 
-0

>  <r_epik_Charging_Adjusted_Penalty>  (250) 
0

>  <i_epik_Tot_Q>  (250) 
0

>  <i_epik_Tot_abs_Q>  (250) 
0

>  <s_lp_Force_Field>  (250) 
OPLS3e

>  <r_lp_Energy>  (250) 
26.3744

>  <b_lp_Chiralities_Consistent>  (250) 
1

>  <s_lp_Variant>  (250) 
83:0-1

>  <s_i_glide_gridfile>  (250) 
pfpi4k_grid

>  <i_i_glide_lignum>  (250) 
35

>  <i_i_glide_rotatable_bonds>  (250) 
0

>  <r_i_docking_score>  (250) 
-2.89862

>  <r_i_glide_ligand_efficiency>  (250) 
-0.144931

>  <r_i_glide_ligand_efficiency_sa>  (250) 
-0.393403

>  <r_i_glide_ligand_efficiency_ln>  (250) 
-0.725428

>  <r_i_glide_gscore>  (250) 
-2.89862

>  <r_i_glide_lipo>  (250) 
-0.435187

>  <r_i_glide_hbond>  (250) 
0

>  <r_i_glide_metal>  (250) 
-0

>  <r_i_glide_rewards>  (250) 
-1.51354

>  <r_i_glide_evdw>  (250) 
-18.9284

>  <r_i_glide_ecoul>  (250) 
-0.0230996

>  <r_i_glide_erotb>  (250) 
0

>  <r_i_glide_esite>  (250) 
0

>  <r_i_glide_emodel>  (250) 
-22.2874

>  <r_i_glide_energy>  (250) 
-18.9515

>  <r_i_glide_einternal>  (250) 
0

>  <r_i_glide_intrahb_reward>  (250) 
-0

>  <i_i_glide_confnum>  (250) 
1

>  <i_i_glide_posenum>  (250) 
1

>  <r_i_glide_eff_state_penalty>  (250) 
0

>  <ligand_id>  (250) 
83

>  <original_smiles>  (250) 
CC1CCC2OOC3(C)CCC4(C)CCC1C2(OO3)O4

>  <smiles>  (250) 
[H]C([H])([H])C12OOC3([H])C([H])([H])C([H])([H])C([H])(C([H])([H])[H])C4([H])C([H])([H])C([H])([H])C(C([H])([H])[H])(OC34OO1)C([H])([H])C2([H])[H]

$$$$
83:0:2
     RDKit          3D

 44 47  0  0  1  0  0  0  0  0999 V2000
    4.9094   -3.0558   -2.7010 C   0  0  0  0  0  0  0  0  0  0  0  0
    4.3913   -2.6404   -1.3103 C   0  0  2  0  0  0  0  0  0  0  0  0
    4.7640   -1.1728   -1.0152 C   0  0  0  0  0  0  0  0  0  0  0  0
    4.2069   -0.6949    0.3353 C   0  0  0  0  0  0  0  0  0  0  0  0
    4.6497   -1.5930    1.5050 C   0  0  1  0  0  0  0  0  0  0  0  0
    4.0246   -1.1213    2.6997 O   0  0  0  0  0  0  0  0  0  0  0  0
    4.0942   -2.1883    3.7766 O   0  0  0  0  0  0  0  0  0  0  0  0
    2.9209   -2.9883    3.6922 C   0  0  2  0  0  0  0  0  0  0  0  0
    1.9408   -2.3982    4.7264 C   0  0  0  0  0  0  0  0  0  0  0  0
    3.2081   -4.4738    4.0723 C   0  0  0  0  0  0  0  0  0  0  0  0
    3.6533   -5.4797    2.9724 C   0  0  0  0  0  0  0  0  0  0  0  0
    5.0136   -5.1892    2.2692 C   0  0  1  0  0  0  0  0  0  0  0  0
    6.1798   -5.6287    3.1700 C   0  0  0  0  0  0  0  0  0  0  0  0
    5.1442   -5.8682    0.8802 C   0  0  0  0  0  0  0  0  0  0  0  0
    4.5878   -5.0446   -0.2999 C   0  0  0  0  0  0  0  0  0  0  0  0
    4.9104   -3.5424   -0.1560 C   0  0  2  0  0  0  0  0  0  0  0  0
    4.3831   -3.0887    1.2221 C   0  0  2  0  0  0  0  0  0  0  0  0
    2.9855   -3.4332    1.2810 O   0  0  0  0  0  0  0  0  0  0  0  0
    2.2410   -2.8047    2.4512 O   0  0  0  0  0  0  0  0  0  0  0  0
    5.2126   -3.7960    2.1360 O   0  0  0  0  0  0  0  0  0  0  0  0
    6.0004   -3.0719   -2.7428 H   0  0  0  0  0  0  0  0  0  0  0  0
    4.5584   -2.3643   -3.4640 H   0  0  0  0  0  0  0  0  0  0  0  0
    4.5479   -4.0467   -2.9822 H   0  0  0  0  0  0  0  0  0  0  0  0
    3.2990   -2.7047   -1.3327 H   0  0  0  0  0  0  0  0  0  0  0  0
    5.8502   -1.0583   -1.0258 H   0  0  0  0  0  0  0  0  0  0  0  0
    4.3829   -0.5271   -1.8054 H   0  0  0  0  0  0  0  0  0  0  0  0
    4.5295    0.3344    0.5217 H   0  0  0  0  0  0  0  0  0  0  0  0
    3.1095   -0.6754    0.2883 H   0  0  0  0  0  0  0  0  0  0  0  0
    5.7219   -1.4620    1.6517 H   0  0  0  0  0  0  0  0  0  0  0  0
    1.6977   -1.3558    4.5018 H   0  0  0  0  0  0  0  0  0  0  0  0
    2.3515   -2.4440    5.7403 H   0  0  0  0  0  0  0  0  0  0  0  0
    1.0027   -2.9614    4.7264 H   0  0  0  0  0  0  0  0  0  0  0  0
    3.9380   -4.4910    4.8848 H   0  0  0  0  0  0  0  0  0  0  0  0
    2.3027   -4.9028    4.5095 H   0  0  0  0  0  0  0  0  0  0  0  0
    3.7055   -6.4765    3.4176 H   0  0  0  0  0  0  0  0  0  0  0  0
    2.8469   -5.5726    2.2424 H   0  0  0  0  0  0  0  0  0  0  0  0
    6.1866   -6.7073    3.3259 H   0  0  0  0  0  0  0  0  0  0  0  0
    6.1401   -5.1392    4.1427 H   0  0  0  0  0  0  0  0  0  0  0  0
    7.1307   -5.3516    2.7095 H   0  0  0  0  0  0  0  0  0  0  0  0
    6.1983   -6.0507    0.6723 H   0  0  0  0  0  0  0  0  0  0  0  0
    4.6715   -6.8500    0.8948 H   0  0  0  0  0  0  0  0  0  0  0  0
    5.0125   -5.4360   -1.2257 H   0  0  0  0  0  0  0  0  0  0  0  0
    3.5082   -5.1845   -0.3735 H   0  0  0  0  0  0  0  0  0  0  0  0
    5.9987   -3.4395   -0.1385 H   0  0  0  0  0  0  0  0  0  0  0  0
  1  2  1  0
  1 21  1  0
  1 22  1  0
  1 23  1  0
  2 16  1  0
  2  3  1  0
  2 24  1  6
  3  4  1  0
  3 25  1  0
  3 26  1  0
  4  5  1  0
  4 27  1  0
  4 28  1  0
  5 17  1  0
  5  6  1  0
  5 29  1  1
  6  7  1  0
  7  8  1  0
  8 19  1  0
  8  9  1  1
  8 10  1  0
  9 30  1  0
  9 31  1  0
  9 32  1  0
 10 11  1  0
 10 33  1  0
 10 34  1  0
 11 12  1  0
 11 35  1  0
 11 36  1  0
 12 20  1  0
 12 13  1  1
 12 14  1  0
 13 37  1  0
 13 38  1  0
 13 39  1  0
 14 15  1  0
 14 40  1  0
 14 41  1  0
 15 16  1  0
 15 42  1  0
 15 43  1  0
 16 17  1  0
 16 44  1  1
 17 18  1  1
 17 20  1  0
 18 19  1  0
M  END
>  <i_m_ct_stereo_status>  (251) 
1

>  <s_m_source_file>  (251) 
/var/tmp/pbs.5076255.sched01/tmppxy1xzy0/80exjuxwr6.sdf

>  <i_m_source_file_index>  (251) 
35

>  <i_lp_mmshare_version>  (251) 
48012

>  <i_f3d_flags>  (251) 
0

>  <s_epik_input>  (251) 
W0NAQF0xMjNbQ0BIXTRbQ0gyXVtDSDJdW0NAQEhdKFtDSDNdKVtDQEBIXTFbQ0gyXVtDSDJdW0NAXShPMykoW0NIM10pW0NIMl1bQ0gyXVtDQF0oT080KShbQ0gzXSlPTzI=

>  <s_epik_cmdline>  (251) 
J2VwaWtfcHl0aG9uJywgJy1waHQnLCAnMi4wJywgJy1waCcsICc3LjAnLCAnLXRuJywgJzgnLCAnLW1hJywgJzIwMCcsICctaW1hZScsICc8aW5maWxlLm1hZT4nLCAnLW9tYWUnLCAnPG91dGZpbGUubWFlPic=

>  <r_lp_tautomer_probability>  (251) 
1

>  <r_epik_Ionization_Penalty>  (251) 
1.10509e-14

>  <r_epik_Ionization_Penalty_Charging>  (251) 
0

>  <r_epik_Ionization_Penalty_Neutral>  (251) 
1.10509e-14

>  <r_epik_State_Penalty>  (251) 
-0

>  <r_epik_Charging_Adjusted_Penalty>  (251) 
0

>  <i_epik_Tot_Q>  (251) 
0

>  <i_epik_Tot_abs_Q>  (251) 
0

>  <s_lp_Force_Field>  (251) 
OPLS3e

>  <r_lp_Energy>  (251) 
26.3744

>  <b_lp_Chiralities_Consistent>  (251) 
1

>  <s_lp_Variant>  (251) 
83:0-1

>  <s_i_glide_gridfile>  (251) 
pfpi4k_grid

>  <i_i_glide_lignum>  (251) 
35

>  <i_i_glide_rotatable_bonds>  (251) 
0

>  <r_i_docking_score>  (251) 
-2.84246

>  <r_i_glide_ligand_efficiency>  (251) 
-0.142123

>  <r_i_glide_ligand_efficiency_sa>  (251) 
-0.385782

>  <r_i_glide_ligand_efficiency_ln>  (251) 
-0.711375

>  <r_i_glide_gscore>  (251) 
-2.84246

>  <r_i_glide_lipo>  (251) 
-0.412715

>  <r_i_glide_hbond>  (251) 
0

>  <r_i_glide_metal>  (251) 
-0

>  <r_i_glide_rewards>  (251) 
-1.4905

>  <r_i_glide_evdw>  (251) 
-19.9232

>  <r_i_glide_ecoul>  (251) 
0.379376

>  <r_i_glide_erotb>  (251) 
0

>  <r_i_glide_esite>  (251) 
0

>  <r_i_glide_emodel>  (251) 
-22.8098

>  <r_i_glide_energy>  (251) 
-19.5438

>  <r_i_glide_einternal>  (251) 
0

>  <r_i_glide_intrahb_reward>  (251) 
-0

>  <i_i_glide_confnum>  (251) 
2

>  <i_i_glide_posenum>  (251) 
31

>  <r_i_glide_eff_state_penalty>  (251) 
0

>  <ligand_id>  (251) 
83

>  <original_smiles>  (251) 
CC1CCC2OOC3(C)CCC4(C)CCC1C2(OO3)O4

>  <smiles>  (251) 
[H]C([H])([H])C12OOC3([H])C([H])([H])C([H])([H])C([H])(C([H])([H])[H])C4([H])C([H])([H])C([H])([H])C(C([H])([H])[H])(OC34OO1)C([H])([H])C2([H])[H]

$$$$
84:0:0
     RDKit          3D

 13 14  0  0  1  0  0  0  0  0999 V2000
    2.8967   -2.7201   -3.5331 C   0  0  0  0  0  0  0  0  0  0  0  0
    2.4440   -3.0559   -2.2849 C   0  0  0  0  0  0  0  0  0  0  0  0
    3.3863   -3.4511   -1.3906 N   0  0  0  0  0  0  0  0  0  0  0  0
    3.1968   -3.8372   -0.1023 N   0  0  0  0  0  0  0  0  0  0  0  0
    4.4361   -4.1048    0.2885 C   0  0  0  0  0  0  0  0  0  0  0  0
    5.4186   -3.9205   -0.6407 N   0  0  0  0  0  0  0  0  0  0  0  0
    4.7489   -3.5120   -1.7139 C   0  0  0  0  0  0  0  0  0  0  0  0
    5.1059   -3.1427   -3.0476 C   0  0  0  0  0  0  0  0  0  0  0  0
    4.2144   -2.7598   -3.9200 N   0  0  0  0  0  0  0  0  0  0  0  0
    2.2007   -2.4001   -4.2981 H   0  0  0  0  0  0  0  0  0  0  0  0
    1.4104   -3.0185   -1.9633 H   0  0  0  0  0  0  0  0  0  0  0  0
    4.6461   -4.4404    1.2914 H   0  0  0  0  0  0  0  0  0  0  0  0
    6.1555   -3.1820   -3.3275 H   0  0  0  0  0  0  0  0  0  0  0  0
  1  9  1  0
  1  2  2  0
  1 10  1  0
  2  3  1  0
  2 11  1  0
  3  7  1  0
  3  4  1  0
  4  5  2  0
  5  6  1  0
  5 12  1  0
  6  7  2  0
  7  8  1  0
  8  9  2  0
  8 13  1  0
M  END
>  <i_m_ct_stereo_status>  (252) 
1

>  <s_m_source_file>  (252) 
/var/tmp/pbs.5076255.sched01/tmppxy1xzy0/80exjuxwr6.sdf

>  <i_m_source_file_index>  (252) 
36

>  <i_lp_mmshare_version>  (252) 
48012

>  <i_f3d_flags>  (252) 
0

>  <s_epik_input>  (252) 
W2NIXTFbY0hdbltjSF1jKG4xMiluW2NIXW4y

>  <s_epik_cmdline>  (252) 
J2VwaWtfcHl0aG9uJywgJy1waHQnLCAnMi4wJywgJy1waCcsICc3LjAnLCAnLXRuJywgJzgnLCAnLW1hJywgJzIwMCcsICctaW1hZScsICc8aW5maWxlLm1hZT4nLCAnLW9tYWUnLCAnPG91dGZpbGUubWFlPic=

>  <r_lp_tautomer_probability>  (252) 
1

>  <r_epik_Ionization_Penalty>  (252) 
1.29873e-06

>  <r_epik_Ionization_Penalty_Charging>  (252) 
0

>  <r_epik_Ionization_Penalty_Neutral>  (252) 
1.29873e-06

>  <r_epik_State_Penalty>  (252) 
-0

>  <r_epik_Charging_Adjusted_Penalty>  (252) 
0

>  <i_epik_Tot_Q>  (252) 
0

>  <i_epik_Tot_abs_Q>  (252) 
0

>  <s_lp_Force_Field>  (252) 
OPLS3e

>  <r_lp_Energy>  (252) 
13.1408

>  <b_lp_Chiralities_Consistent>  (252) 
1

>  <s_lp_Variant>  (252) 
84:0-1

>  <s_i_glide_gridfile>  (252) 
pfpi4k_grid

>  <i_i_glide_lignum>  (252) 
36

>  <i_i_glide_rotatable_bonds>  (252) 
0

>  <r_i_docking_score>  (252) 
-4.33306

>  <r_i_glide_ligand_efficiency>  (252) 
-0.481451

>  <r_i_glide_ligand_efficiency_sa>  (252) 
-1.00146

>  <r_i_glide_ligand_efficiency_ln>  (252) 
-1.35526

>  <r_i_glide_gscore>  (252) 
-4.33306

>  <r_i_glide_lipo>  (252) 
-0.473223

>  <r_i_glide_hbond>  (252) 
-0.137165

>  <r_i_glide_metal>  (252) 
-0

>  <r_i_glide_rewards>  (252) 
-2.37571

>  <r_i_glide_evdw>  (252) 
-16.2792

>  <r_i_glide_ecoul>  (252) 
-3.55336

>  <r_i_glide_erotb>  (252) 
0

>  <r_i_glide_esite>  (252) 
0

>  <r_i_glide_emodel>  (252) 
-25.2999

>  <r_i_glide_energy>  (252) 
-19.8325

>  <r_i_glide_einternal>  (252) 
0

>  <r_i_glide_intrahb_reward>  (252) 
-0

>  <i_i_glide_confnum>  (252) 
2

>  <i_i_glide_posenum>  (252) 
19

>  <r_i_glide_eff_state_penalty>  (252) 
0

>  <ligand_id>  (252) 
84

>  <original_smiles>  (252) 
c1cn2ncnc2cn1

>  <smiles>  (252) 
[H]c1nc2c([H])nc([H])c([H])n2n1

$$$$
84:0:1
     RDKit          3D

 13 14  0  0  1  0  0  0  0  0999 V2000
    3.0992   -2.1054   -3.6428 C   0  0  0  0  0  0  0  0  0  0  0  0
    2.5963   -3.0558   -2.7942 C   0  0  0  0  0  0  0  0  0  0  0  0
    2.9965   -2.9740   -1.5002 N   0  0  0  0  0  0  0  0  0  0  0  0
    2.6436   -3.7866   -0.4666 N   0  0  0  0  0  0  0  0  0  0  0  0
    3.3158   -3.2519    0.5457 C   0  0  0  0  0  0  0  0  0  0  0  0
    4.0832   -2.1626    0.2574 N   0  0  0  0  0  0  0  0  0  0  0  0
    3.8745   -1.9794   -1.0442 C   0  0  0  0  0  0  0  0  0  0  0  0
    4.3357   -1.0465   -2.0178 C   0  0  0  0  0  0  0  0  0  0  0  0
    3.9705   -1.1110   -3.2695 N   0  0  0  0  0  0  0  0  0  0  0  0
    2.8287   -2.1022   -4.6925 H   0  0  0  0  0  0  0  0  0  0  0  0
    1.9138   -3.8525   -3.0750 H   0  0  0  0  0  0  0  0  0  0  0  0
    3.2534   -3.6692    1.5410 H   0  0  0  0  0  0  0  0  0  0  0  0
    5.0112   -0.2606   -1.6954 H   0  0  0  0  0  0  0  0  0  0  0  0
  1  9  1  0
  1  2  2  0
  1 10  1  0
  2  3  1  0
  2 11  1  0
  3  7  1  0
  3  4  1  0
  4  5  2  0
  5  6  1  0
  5 12  1  0
  6  7  2  0
  7  8  1  0
  8  9  2  0
  8 13  1  0
M  END
>  <i_m_ct_stereo_status>  (253) 
1

>  <s_m_source_file>  (253) 
/var/tmp/pbs.5076255.sched01/tmppxy1xzy0/80exjuxwr6.sdf

>  <i_m_source_file_index>  (253) 
36

>  <i_lp_mmshare_version>  (253) 
48012

>  <i_f3d_flags>  (253) 
0

>  <s_epik_input>  (253) 
W2NIXTFbY0hdbltjSF1jKG4xMiluW2NIXW4y

>  <s_epik_cmdline>  (253) 
J2VwaWtfcHl0aG9uJywgJy1waHQnLCAnMi4wJywgJy1waCcsICc3LjAnLCAnLXRuJywgJzgnLCAnLW1hJywgJzIwMCcsICctaW1hZScsICc8aW5maWxlLm1hZT4nLCAnLW9tYWUnLCAnPG91dGZpbGUubWFlPic=

>  <r_lp_tautomer_probability>  (253) 
1

>  <r_epik_Ionization_Penalty>  (253) 
1.29873e-06

>  <r_epik_Ionization_Penalty_Charging>  (253) 
0

>  <r_epik_Ionization_Penalty_Neutral>  (253) 
1.29873e-06

>  <r_epik_State_Penalty>  (253) 
-0

>  <r_epik_Charging_Adjusted_Penalty>  (253) 
0

>  <i_epik_Tot_Q>  (253) 
0

>  <i_epik_Tot_abs_Q>  (253) 
0

>  <s_lp_Force_Field>  (253) 
OPLS3e

>  <r_lp_Energy>  (253) 
13.1408

>  <b_lp_Chiralities_Consistent>  (253) 
1

>  <s_lp_Variant>  (253) 
84:0-1

>  <s_i_glide_gridfile>  (253) 
pfpi4k_grid

>  <i_i_glide_lignum>  (253) 
36

>  <i_i_glide_rotatable_bonds>  (253) 
0

>  <r_i_docking_score>  (253) 
-3.7909

>  <r_i_glide_ligand_efficiency>  (253) 
-0.421211

>  <r_i_glide_ligand_efficiency_sa>  (253) 
-0.876154

>  <r_i_glide_ligand_efficiency_ln>  (253) 
-1.18568

>  <r_i_glide_gscore>  (253) 
-3.7909

>  <r_i_glide_lipo>  (253) 
-0.289298

>  <r_i_glide_hbond>  (253) 
0

>  <r_i_glide_metal>  (253) 
-0

>  <r_i_glide_rewards>  (253) 
-2.25

>  <r_i_glide_evdw>  (253) 
-16.228

>  <r_i_glide_ecoul>  (253) 
-2.51424

>  <r_i_glide_erotb>  (253) 
0

>  <r_i_glide_esite>  (253) 
-0.0630665

>  <r_i_glide_emodel>  (253) 
-23.5254

>  <r_i_glide_energy>  (253) 
-18.7422

>  <r_i_glide_einternal>  (253) 
0

>  <r_i_glide_intrahb_reward>  (253) 
-0

>  <i_i_glide_confnum>  (253) 
2

>  <i_i_glide_posenum>  (253) 
15

>  <r_i_glide_eff_state_penalty>  (253) 
0

>  <ligand_id>  (253) 
84

>  <original_smiles>  (253) 
c1cn2ncnc2cn1

>  <smiles>  (253) 
[H]c1nc2c([H])nc([H])c([H])n2n1

$$$$
84:0:2
     RDKit          3D

 13 14  0  0  1  0  0  0  0  0999 V2000
    0.4181   -6.8514    5.9281 C   0  0  0  0  0  0  0  0  0  0  0  0
   -0.0517   -6.3565    4.7387 C   0  0  0  0  0  0  0  0  0  0  0  0
   -0.3844   -7.2820    3.8022 N   0  0  0  0  0  0  0  0  0  0  0  0
   -0.8696   -7.0454    2.5545 N   0  0  0  0  0  0  0  0  0  0  0  0
   -1.0123   -8.2769    2.0810 C   0  0  0  0  0  0  0  0  0  0  0  0
   -0.6648   -9.2906    2.9167 N   0  0  0  0  0  0  0  0  0  0  0  0
   -0.2661   -8.6610    4.0189 C   0  0  0  0  0  0  0  0  0  0  0  0
    0.2268   -9.0619    5.2939 C   0  0  0  0  0  0  0  0  0  0  0  0
    0.5539   -8.1883    6.2091 N   0  0  0  0  0  0  0  0  0  0  0  0
    0.7091   -6.1856    6.7342 H   0  0  0  0  0  0  0  0  0  0  0  0
   -0.1613   -5.3050    4.5030 H   0  0  0  0  0  0  0  0  0  0  0  0
   -1.3811   -8.4592    1.0813 H   0  0  0  0  0  0  0  0  0  0  0  0
    0.3278  -10.1249    5.4940 H   0  0  0  0  0  0  0  0  0  0  0  0
  1  9  1  0
  1  2  2  0
  1 10  1  0
  2  3  1  0
  2 11  1  0
  3  7  1  0
  3  4  1  0
  4  5  2  0
  5  6  1  0
  5 12  1  0
  6  7  2  0
  7  8  1  0
  8  9  2  0
  8 13  1  0
M  END
>  <i_m_ct_stereo_status>  (254) 
1

>  <s_m_source_file>  (254) 
/var/tmp/pbs.5076255.sched01/tmppxy1xzy0/80exjuxwr6.sdf

>  <i_m_source_file_index>  (254) 
36

>  <i_lp_mmshare_version>  (254) 
48012

>  <i_f3d_flags>  (254) 
0

>  <s_epik_input>  (254) 
W2NIXTFbY0hdbltjSF1jKG4xMiluW2NIXW4y

>  <s_epik_cmdline>  (254) 
J2VwaWtfcHl0aG9uJywgJy1waHQnLCAnMi4wJywgJy1waCcsICc3LjAnLCAnLXRuJywgJzgnLCAnLW1hJywgJzIwMCcsICctaW1hZScsICc8aW5maWxlLm1hZT4nLCAnLW9tYWUnLCAnPG91dGZpbGUubWFlPic=

>  <r_lp_tautomer_probability>  (254) 
1

>  <r_epik_Ionization_Penalty>  (254) 
1.29873e-06

>  <r_epik_Ionization_Penalty_Charging>  (254) 
0

>  <r_epik_Ionization_Penalty_Neutral>  (254) 
1.29873e-06

>  <r_epik_State_Penalty>  (254) 
-0

>  <r_epik_Charging_Adjusted_Penalty>  (254) 
0

>  <i_epik_Tot_Q>  (254) 
0

>  <i_epik_Tot_abs_Q>  (254) 
0

>  <s_lp_Force_Field>  (254) 
OPLS3e

>  <r_lp_Energy>  (254) 
13.1408

>  <b_lp_Chiralities_Consistent>  (254) 
1

>  <s_lp_Variant>  (254) 
84:0-1

>  <s_i_glide_gridfile>  (254) 
pfpi4k_grid

>  <i_i_glide_lignum>  (254) 
36

>  <i_i_glide_rotatable_bonds>  (254) 
0

>  <r_i_docking_score>  (254) 
-3.7359

>  <r_i_glide_ligand_efficiency>  (254) 
-0.4151

>  <r_i_glide_ligand_efficiency_sa>  (254) 
-0.863444

>  <r_i_glide_ligand_efficiency_ln>  (254) 
-1.16848

>  <r_i_glide_gscore>  (254) 
-3.7359

>  <r_i_glide_lipo>  (254) 
0

>  <r_i_glide_hbond>  (254) 
-0.16

>  <r_i_glide_metal>  (254) 
-0

>  <r_i_glide_rewards>  (254) 
-2.25

>  <r_i_glide_evdw>  (254) 
-12.3807

>  <r_i_glide_ecoul>  (254) 
-3.64478

>  <r_i_glide_erotb>  (254) 
0

>  <r_i_glide_esite>  (254) 
-0.16015

>  <r_i_glide_emodel>  (254) 
-20.7395

>  <r_i_glide_energy>  (254) 
-16.0255

>  <r_i_glide_einternal>  (254) 
0

>  <r_i_glide_intrahb_reward>  (254) 
-0

>  <i_i_glide_confnum>  (254) 
1

>  <i_i_glide_posenum>  (254) 
2

>  <r_i_glide_eff_state_penalty>  (254) 
0

>  <ligand_id>  (254) 
84

>  <original_smiles>  (254) 
c1cn2ncnc2cn1

>  <smiles>  (254) 
[H]c1nc2c([H])nc([H])c([H])n2n1

$$$$
85:0:0
     RDKit          3D

 29 30  0  0  1  0  0  0  0  0999 V2000
  -12.1909   -8.1522   -7.7794 C   0  0  0  0  0  0  0  0  0  0  0  0
  -11.6268   -7.7193   -9.1415 C   0  0  2  0  0  0  0  0  0  0  0  0
  -11.0661   -9.0976  -10.1619 S   0  0  0  0  0  0  0  0  0  0  0  0
   -9.6103   -9.4886   -9.1756 C   0  0  1  0  0  0  0  0  0  0  0  0
   -8.8346  -10.6602   -9.8056 C   0  0  0  0  0  0  0  0  0  0  0  0
   -8.7109   -8.2475   -8.9550 C   0  0  0  0  0  0  0  0  0  0  0  0
   -7.5078   -8.4832   -8.8507 O   0  0  0  0  0  0  0  0  0  0  0  0
   -9.2130   -6.9654   -8.8771 N   0  0  0  0  0  0  0  0  0  0  0  0
   -8.2473   -5.8611   -8.6413 C   0  0  0  0  0  0  0  0  0  0  0  0
   -7.8844   -5.6949   -7.2000 C   0  0  0  0  0  0  0  0  0  0  0  0
   -7.1720   -6.5509   -6.3907 C   0  0  0  0  0  0  0  0  0  0  0  0
   -6.9799   -6.0512   -5.0865 C   0  0  0  0  0  0  0  0  0  0  0  0
   -7.5650   -4.8250   -4.8875 C   0  0  0  0  0  0  0  0  0  0  0  0
   -8.3817   -4.2755   -6.3269 S   0  0  0  0  0  0  0  0  0  0  0  0
  -10.5440   -6.6461   -8.9761 C   0  0  0  0  0  0  0  0  0  0  0  0
  -10.9543   -5.4817   -8.9415 O   0  0  0  0  0  0  0  0  0  0  0  0
  -12.6489   -7.3115   -7.2605 H   0  0  0  0  0  0  0  0  0  0  0  0
  -11.4074   -8.5252   -7.1301 H   0  0  0  0  0  0  0  0  0  0  0  0
  -12.9356   -8.9331   -7.8997 H   0  0  0  0  0  0  0  0  0  0  0  0
  -12.4338   -7.2560   -9.7143 H   0  0  0  0  0  0  0  0  0  0  0  0
   -9.9417   -9.8211   -8.1915 H   0  0  0  0  0  0  0  0  0  0  0  0
   -7.9973  -10.9566   -9.1773 H   0  0  0  0  0  0  0  0  0  0  0  0
   -8.4378  -10.3646  -10.7725 H   0  0  0  0  0  0  0  0  0  0  0  0
   -9.4684  -11.5340   -9.9350 H   0  0  0  0  0  0  0  0  0  0  0  0
   -7.3680   -6.0473   -9.2414 H   0  0  0  0  0  0  0  0  0  0  0  0
   -8.5526   -4.8960   -9.0463 H   0  0  0  0  0  0  0  0  0  0  0  0
   -6.7664   -7.5125   -6.6789 H   0  0  0  0  0  0  0  0  0  0  0  0
   -6.4412   -6.6101   -4.3307 H   0  0  0  0  0  0  0  0  0  0  0  0
   -7.5807   -4.2240   -3.9843 H   0  0  0  0  0  0  0  0  0  0  0  0
  1  2  1  0
  1 17  1  0
  1 18  1  0
  1 19  1  0
  2 15  1  0
  2  3  1  0
  2 20  1  6
  3  4  1  0
  4  5  1  0
  4  6  1  0
  4 21  1  1
  5 22  1  0
  5 23  1  0
  5 24  1  0
  6  7  2  0
  6  8  1  0
  8  9  1  0
  8 15  1  0
  9 10  1  0
  9 25  1  0
  9 26  1  0
 10 14  1  0
 10 11  2  0
 11 12  1  0
 11 27  1  0
 12 13  2  0
 12 28  1  0
 13 14  1  0
 13 29  1  0
 15 16  2  0
M  END
>  <i_m_ct_stereo_status>  (255) 
1

>  <s_m_source_file>  (255) 
/var/tmp/pbs.5076255.sched01/tmppxy1xzy0/80exjuxwr6.sdf

>  <i_m_source_file_index>  (255) 
37

>  <i_lp_mmshare_version>  (255) 
48012

>  <i_f3d_flags>  (255) 
0

>  <s_epik_input>  (255) 
W0NIM11bQ0BASF0xU1tDQEBIXShbQ0gzXSlDKD1PKU4oQzE9TylbQ0gyXWMyW2NIXVtjSF1bY0hdczI=

>  <s_epik_cmdline>  (255) 
J2VwaWtfcHl0aG9uJywgJy1waHQnLCAnMi4wJywgJy1waCcsICc3LjAnLCAnLXRuJywgJzgnLCAnLW1hJywgJzIwMCcsICctaW1hZScsICc8aW5maWxlLm1hZT4nLCAnLW9tYWUnLCAnPG91dGZpbGUubWFlPic=

>  <r_lp_tautomer_probability>  (255) 
1

>  <r_epik_Ionization_Penalty>  (255) 
3.22055e-13

>  <r_epik_Ionization_Penalty_Charging>  (255) 
0

>  <r_epik_Ionization_Penalty_Neutral>  (255) 
3.22055e-13

>  <r_epik_State_Penalty>  (255) 
-0

>  <r_epik_Charging_Adjusted_Penalty>  (255) 
0

>  <i_epik_Tot_Q>  (255) 
0

>  <i_epik_Tot_abs_Q>  (255) 
0

>  <s_lp_Force_Field>  (255) 
OPLS3e

>  <r_lp_Energy>  (255) 
36.5442

>  <b_lp_Chiralities_Consistent>  (255) 
1

>  <s_lp_Variant>  (255) 
85:0-1

>  <s_i_glide_gridfile>  (255) 
pfpi4k_grid

>  <i_i_glide_lignum>  (255) 
37

>  <i_i_glide_rotatable_bonds>  (255) 
2

>  <r_i_docking_score>  (255) 
-5.00405

>  <r_i_glide_ligand_efficiency>  (255) 
-0.312753

>  <r_i_glide_ligand_efficiency_sa>  (255) 
-0.788088

>  <r_i_glide_ligand_efficiency_ln>  (255) 
-1.32642

>  <r_i_glide_gscore>  (255) 
-5.00405

>  <r_i_glide_lipo>  (255) 
-1.54619

>  <r_i_glide_hbond>  (255) 
-0.0900579

>  <r_i_glide_metal>  (255) 
-0

>  <r_i_glide_rewards>  (255) 
-2.33701

>  <r_i_glide_evdw>  (255) 
-24.0492

>  <r_i_glide_ecoul>  (255) 
-2.27622

>  <r_i_glide_erotb>  (255) 
0.539982

>  <r_i_glide_esite>  (255) 
-0.0268702

>  <r_i_glide_emodel>  (255) 
-34.422

>  <r_i_glide_energy>  (255) 
-26.3255

>  <r_i_glide_einternal>  (255) 
0.406014

>  <r_i_glide_intrahb_reward>  (255) 
-0

>  <i_i_glide_confnum>  (255) 
1

>  <i_i_glide_posenum>  (255) 
1

>  <r_i_glide_eff_state_penalty>  (255) 
0

>  <ligand_id>  (255) 
85

>  <original_smiles>  (255) 
CC1SC(C)C(=O)N(Cc2cccs2)C1=O

>  <smiles>  (255) 
[H]c1sc(C([H])([H])N2C(=O)C([H])(C([H])([H])[H])SC([H])(C([H])([H])[H])C2=O)c([H])c1[H]

$$$$
85:0:1
     RDKit          3D

 29 30  0  0  1  0  0  0  0  0999 V2000
  -10.4686  -10.6831   -7.5035 C   0  0  0  0  0  0  0  0  0  0  0  0
   -9.7357  -10.5226   -8.8416 C   0  0  2  0  0  0  0  0  0  0  0  0
   -8.2945  -11.5911   -9.0181 S   0  0  0  0  0  0  0  0  0  0  0  0
   -7.2544  -10.7135   -7.8465 C   0  0  1  0  0  0  0  0  0  0  0  0
   -5.8732  -11.3802   -7.7578 C   0  0  0  0  0  0  0  0  0  0  0  0
   -7.1593   -9.2008   -8.1972 C   0  0  0  0  0  0  0  0  0  0  0  0
   -6.0888   -8.6542   -7.9480 O   0  0  0  0  0  0  0  0  0  0  0  0
   -8.2000   -8.4990   -8.7493 N   0  0  0  0  0  0  0  0  0  0  0  0
   -7.9979   -7.0306   -8.9713 C   0  0  0  0  0  0  0  0  0  0  0  0
   -8.1904   -6.2062   -7.7365 C   0  0  0  0  0  0  0  0  0  0  0  0
   -7.4629   -6.2084   -6.5661 C   0  0  0  0  0  0  0  0  0  0  0  0
   -7.9231   -5.2710   -5.6112 C   0  0  0  0  0  0  0  0  0  0  0  0
   -8.9963   -4.5367   -6.0452 C   0  0  0  0  0  0  0  0  0  0  0  0
   -9.4729   -5.0285   -7.6512 S   0  0  0  0  0  0  0  0  0  0  0  0
   -9.4068   -9.0393   -9.0969 C   0  0  0  0  0  0  0  0  0  0  0  0
  -10.2894   -8.3778   -9.6337 O   0  0  0  0  0  0  0  0  0  0  0  0
  -11.4121  -10.1381   -7.4766 H   0  0  0  0  0  0  0  0  0  0  0  0
   -9.8619  -10.2828   -6.7028 H   0  0  0  0  0  0  0  0  0  0  0  0
  -10.6713  -11.7261   -7.2819 H   0  0  0  0  0  0  0  0  0  0  0  0
  -10.4070  -10.8314   -9.6409 H   0  0  0  0  0  0  0  0  0  0  0  0
   -7.7038  -10.7972   -6.8587 H   0  0  0  0  0  0  0  0  0  0  0  0
   -5.2539  -10.9189   -6.9943 H   0  0  0  0  0  0  0  0  0  0  0  0
   -5.3553  -11.2804   -8.7036 H   0  0  0  0  0  0  0  0  0  0  0  0
   -5.9318  -12.4369   -7.5106 H   0  0  0  0  0  0  0  0  0  0  0  0
   -7.0007   -6.8709   -9.3748 H   0  0  0  0  0  0  0  0  0  0  0  0
   -8.6055   -6.6090   -9.7767 H   0  0  0  0  0  0  0  0  0  0  0  0
   -6.6222   -6.8490   -6.3253 H   0  0  0  0  0  0  0  0  0  0  0  0
   -7.4537   -5.1712   -4.6367 H   0  0  0  0  0  0  0  0  0  0  0  0
   -9.5367   -3.7544   -5.5323 H   0  0  0  0  0  0  0  0  0  0  0  0
  1  2  1  0
  1 17  1  0
  1 18  1  0
  1 19  1  0
  2 15  1  0
  2  3  1  0
  2 20  1  6
  3  4  1  0
  4  5  1  0
  4  6  1  0
  4 21  1  1
  5 22  1  0
  5 23  1  0
  5 24  1  0
  6  7  2  0
  6  8  1  0
  8  9  1  0
  8 15  1  0
  9 10  1  0
  9 25  1  0
  9 26  1  0
 10 14  1  0
 10 11  2  0
 11 12  1  0
 11 27  1  0
 12 13  2  0
 12 28  1  0
 13 14  1  0
 13 29  1  0
 15 16  2  0
M  END
>  <i_m_ct_stereo_status>  (256) 
1

>  <s_m_source_file>  (256) 
/var/tmp/pbs.5076255.sched01/tmppxy1xzy0/80exjuxwr6.sdf

>  <i_m_source_file_index>  (256) 
37

>  <i_lp_mmshare_version>  (256) 
48012

>  <i_f3d_flags>  (256) 
0

>  <s_epik_input>  (256) 
W0NIM11bQ0BASF0xU1tDQEBIXShbQ0gzXSlDKD1PKU4oQzE9TylbQ0gyXWMyW2NIXVtjSF1bY0hdczI=

>  <s_epik_cmdline>  (256) 
J2VwaWtfcHl0aG9uJywgJy1waHQnLCAnMi4wJywgJy1waCcsICc3LjAnLCAnLXRuJywgJzgnLCAnLW1hJywgJzIwMCcsICctaW1hZScsICc8aW5maWxlLm1hZT4nLCAnLW9tYWUnLCAnPG91dGZpbGUubWFlPic=

>  <r_lp_tautomer_probability>  (256) 
1

>  <r_epik_Ionization_Penalty>  (256) 
3.22055e-13

>  <r_epik_Ionization_Penalty_Charging>  (256) 
0

>  <r_epik_Ionization_Penalty_Neutral>  (256) 
3.22055e-13

>  <r_epik_State_Penalty>  (256) 
-0

>  <r_epik_Charging_Adjusted_Penalty>  (256) 
0

>  <i_epik_Tot_Q>  (256) 
0

>  <i_epik_Tot_abs_Q>  (256) 
0

>  <s_lp_Force_Field>  (256) 
OPLS3e

>  <r_lp_Energy>  (256) 
36.5442

>  <b_lp_Chiralities_Consistent>  (256) 
1

>  <s_lp_Variant>  (256) 
85:0-1

>  <s_i_glide_gridfile>  (256) 
pfpi4k_grid

>  <i_i_glide_lignum>  (256) 
37

>  <i_i_glide_rotatable_bonds>  (256) 
2

>  <r_i_docking_score>  (256) 
-4.63972

>  <r_i_glide_ligand_efficiency>  (256) 
-0.289983

>  <r_i_glide_ligand_efficiency_sa>  (256) 
-0.73071

>  <r_i_glide_ligand_efficiency_ln>  (256) 
-1.22985

>  <r_i_glide_gscore>  (256) 
-4.63972

>  <r_i_glide_lipo>  (256) 
-1.49444

>  <r_i_glide_hbond>  (256) 
0

>  <r_i_glide_metal>  (256) 
-0

>  <r_i_glide_rewards>  (256) 
-2.51072

>  <r_i_glide_evdw>  (256) 
-23.1897

>  <r_i_glide_ecoul>  (256) 
-0.100432

>  <r_i_glide_erotb>  (256) 
0.539982

>  <r_i_glide_esite>  (256) 
0

>  <r_i_glide_emodel>  (256) 
-30.6641

>  <r_i_glide_energy>  (256) 
-23.2901

>  <r_i_glide_einternal>  (256) 
0.485415

>  <r_i_glide_intrahb_reward>  (256) 
-0

>  <i_i_glide_confnum>  (256) 
1

>  <i_i_glide_posenum>  (256) 
12

>  <r_i_glide_eff_state_penalty>  (256) 
0

>  <ligand_id>  (256) 
85

>  <original_smiles>  (256) 
CC1SC(C)C(=O)N(Cc2cccs2)C1=O

>  <smiles>  (256) 
[H]c1sc(C([H])([H])N2C(=O)C([H])(C([H])([H])[H])SC([H])(C([H])([H])[H])C2=O)c([H])c1[H]

$$$$
85:0:2
     RDKit          3D

 29 30  0  0  1  0  0  0  0  0999 V2000
  -12.5399   -8.0464   -8.2754 C   0  0  0  0  0  0  0  0  0  0  0  0
  -11.5945   -8.0950   -9.4832 C   0  0  2  0  0  0  0  0  0  0  0  0
  -10.8667   -9.7196   -9.7564 S   0  0  0  0  0  0  0  0  0  0  0  0
   -9.7886   -9.6994   -8.3142 C   0  0  1  0  0  0  0  0  0  0  0  0
   -8.9545  -10.9917   -8.2538 C   0  0  0  0  0  0  0  0  0  0  0  0
   -8.9098   -8.4200   -8.2551 C   0  0  0  0  0  0  0  0  0  0  0  0
   -7.8285   -8.5521   -7.6792 O   0  0  0  0  0  0  0  0  0  0  0  0
   -9.3064   -7.2146   -8.8014 N   0  0  0  0  0  0  0  0  0  0  0  0
   -8.3635   -6.0713   -8.6958 C   0  0  0  0  0  0  0  0  0  0  0  0
   -8.4760   -5.3535   -7.3996 C   0  0  0  0  0  0  0  0  0  0  0  0
   -7.6660   -5.4803   -6.2964 C   0  0  0  0  0  0  0  0  0  0  0  0
   -8.0357   -4.6165   -5.2390 C   0  0  0  0  0  0  0  0  0  0  0  0
   -9.1398   -3.8520   -5.5339 C   0  0  0  0  0  0  0  0  0  0  0  0
   -9.7497   -4.2046   -7.1226 S   0  0  0  0  0  0  0  0  0  0  0  0
  -10.5322   -6.9874   -9.3933 C   0  0  0  0  0  0  0  0  0  0  0  0
  -10.8646   -5.9037   -9.8768 O   0  0  0  0  0  0  0  0  0  0  0  0
  -13.0529   -7.0893   -8.2203 H   0  0  0  0  0  0  0  0  0  0  0  0
  -11.9970   -8.1483   -7.3428 H   0  0  0  0  0  0  0  0  0  0  0  0
  -13.2803   -8.8390   -8.3285 H   0  0  0  0  0  0  0  0  0  0  0  0
  -12.1714   -7.8868  -10.3877 H   0  0  0  0  0  0  0  0  0  0  0  0
  -10.4131   -9.6910   -7.4223 H   0  0  0  0  0  0  0  0  0  0  0  0
   -8.3535  -11.0265   -7.3469 H   0  0  0  0  0  0  0  0  0  0  0  0
   -8.2840  -11.0406   -9.1071 H   0  0  0  0  0  0  0  0  0  0  0  0
   -9.5929  -11.8723   -8.2553 H   0  0  0  0  0  0  0  0  0  0  0  0
   -7.3475   -6.4279   -8.8252 H   0  0  0  0  0  0  0  0  0  0  0  0
   -8.4482   -5.3627   -9.5184 H   0  0  0  0  0  0  0  0  0  0  0  0
   -6.8172   -6.1527   -6.2251 H   0  0  0  0  0  0  0  0  0  0  0  0
   -7.4921   -4.5656   -4.2998 H   0  0  0  0  0  0  0  0  0  0  0  0
   -9.6295   -3.1003   -4.9294 H   0  0  0  0  0  0  0  0  0  0  0  0
  1  2  1  0
  1 17  1  0
  1 18  1  0
  1 19  1  0
  2 15  1  0
  2  3  1  0
  2 20  1  6
  3  4  1  0
  4  5  1  0
  4  6  1  0
  4 21  1  1
  5 22  1  0
  5 23  1  0
  5 24  1  0
  6  7  2  0
  6  8  1  0
  8  9  1  0
  8 15  1  0
  9 10  1  0
  9 25  1  0
  9 26  1  0
 10 14  1  0
 10 11  2  0
 11 12  1  0
 11 27  1  0
 12 13  2  0
 12 28  1  0
 13 14  1  0
 13 29  1  0
 15 16  2  0
M  END
>  <i_m_ct_stereo_status>  (257) 
1

>  <s_m_source_file>  (257) 
/var/tmp/pbs.5076255.sched01/tmppxy1xzy0/80exjuxwr6.sdf

>  <i_m_source_file_index>  (257) 
37

>  <i_lp_mmshare_version>  (257) 
48012

>  <i_f3d_flags>  (257) 
0

>  <s_epik_input>  (257) 
W0NIM11bQ0BASF0xU1tDQEBIXShbQ0gzXSlDKD1PKU4oQzE9TylbQ0gyXWMyW2NIXVtjSF1bY0hdczI=

>  <s_epik_cmdline>  (257) 
J2VwaWtfcHl0aG9uJywgJy1waHQnLCAnMi4wJywgJy1waCcsICc3LjAnLCAnLXRuJywgJzgnLCAnLW1hJywgJzIwMCcsICctaW1hZScsICc8aW5maWxlLm1hZT4nLCAnLW9tYWUnLCAnPG91dGZpbGUubWFlPic=

>  <r_lp_tautomer_probability>  (257) 
1

>  <r_epik_Ionization_Penalty>  (257) 
3.22055e-13

>  <r_epik_Ionization_Penalty_Charging>  (257) 
0

>  <r_epik_Ionization_Penalty_Neutral>  (257) 
3.22055e-13

>  <r_epik_State_Penalty>  (257) 
-0

>  <r_epik_Charging_Adjusted_Penalty>  (257) 
0

>  <i_epik_Tot_Q>  (257) 
0

>  <i_epik_Tot_abs_Q>  (257) 
0

>  <s_lp_Force_Field>  (257) 
OPLS3e

>  <r_lp_Energy>  (257) 
36.5442

>  <b_lp_Chiralities_Consistent>  (257) 
1

>  <s_lp_Variant>  (257) 
85:0-1

>  <s_i_glide_gridfile>  (257) 
pfpi4k_grid

>  <i_i_glide_lignum>  (257) 
37

>  <i_i_glide_rotatable_bonds>  (257) 
2

>  <r_i_docking_score>  (257) 
-4.57572

>  <r_i_glide_ligand_efficiency>  (257) 
-0.285982

>  <r_i_glide_ligand_efficiency_sa>  (257) 
-0.720631

>  <r_i_glide_ligand_efficiency_ln>  (257) 
-1.21289

>  <r_i_glide_gscore>  (257) 
-4.57572

>  <r_i_glide_lipo>  (257) 
-1.38201

>  <r_i_glide_hbond>  (257) 
0

>  <r_i_glide_metal>  (257) 
-0

>  <r_i_glide_rewards>  (257) 
-2.23835

>  <r_i_glide_evdw>  (257) 
-24.9728

>  <r_i_glide_ecoul>  (257) 
-1.52193

>  <r_i_glide_erotb>  (257) 
0.539982

>  <r_i_glide_esite>  (257) 
-0.0184107

>  <r_i_glide_emodel>  (257) 
-34.0345

>  <r_i_glide_energy>  (257) 
-26.4948

>  <r_i_glide_einternal>  (257) 
0.644927

>  <r_i_glide_intrahb_reward>  (257) 
-0

>  <i_i_glide_confnum>  (257) 
1

>  <i_i_glide_posenum>  (257) 
35

>  <r_i_glide_eff_state_penalty>  (257) 
0

>  <ligand_id>  (257) 
85

>  <original_smiles>  (257) 
CC1SC(C)C(=O)N(Cc2cccs2)C1=O

>  <smiles>  (257) 
[H]c1sc(C([H])([H])N2C(=O)C([H])(C([H])([H])[H])SC([H])(C([H])([H])[H])C2=O)c([H])c1[H]

$$$$
86:0:0
     RDKit          3D

 31 34  0  0  1  0  0  0  0  0999 V2000
    2.3710   -5.0203    0.0843 C   0  0  0  0  0  0  0  0  0  0  0  0
    1.7628   -5.8823    0.8848 N   0  0  0  0  0  0  0  0  0  0  0  0
    2.5971   -5.9234    1.9900 N   0  0  0  0  0  0  0  0  0  0  0  0
    3.6097   -5.1129    1.8506 N   0  0  0  0  0  0  0  0  0  0  0  0
    3.4997   -4.5473    0.6182 N   0  0  0  0  0  0  0  0  0  0  0  0
    4.4328   -3.5364    0.1201 C   0  0  2  0  0  0  0  0  0  0  0  0
    4.6204   -3.7280   -1.4117 C   0  0  0  0  0  0  0  0  0  0  0  0
    5.5891   -2.6764   -1.9762 C   0  0  1  0  0  0  0  0  0  0  0  0
    5.0028   -1.2717   -1.7153 C   0  0  0  0  0  0  0  0  0  0  0  0
    4.8522   -1.0570   -0.1959 C   0  0  2  0  0  0  0  0  0  0  0  0
    6.2278   -1.1891    0.4875 C   0  0  0  0  0  0  0  0  0  0  0  0
    6.7957   -2.6005    0.2270 C   0  0  2  0  0  0  0  0  0  0  0  0
    6.9577   -2.8394   -1.2869 C   0  0  0  0  0  0  0  0  0  0  0  0
    5.8265   -3.6524    0.8035 C   0  0  0  0  0  0  0  0  0  0  0  0
    3.8794   -2.1092    0.3804 C   0  0  0  0  0  0  0  0  0  0  0  0
    1.9708   -4.7054   -0.8695 H   0  0  0  0  0  0  0  0  0  0  0  0
    4.9922   -4.7329   -1.6246 H   0  0  0  0  0  0  0  0  0  0  0  0
    3.6708   -3.6297   -1.9399 H   0  0  0  0  0  0  0  0  0  0  0  0
    5.6986   -2.8359   -3.0504 H   0  0  0  0  0  0  0  0  0  0  0  0
    5.6398   -0.5036   -2.1462 H   0  0  0  0  0  0  0  0  0  0  0  0
    4.0312   -1.1712   -2.2038 H   0  0  0  0  0  0  0  0  0  0  0  0
    4.4549   -0.0560   -0.0121 H   0  0  0  0  0  0  0  0  0  0  0  0
    6.9108   -0.4306    0.1110 H   0  0  0  0  0  0  0  0  0  0  0  0
    6.1338   -1.0109    1.5595 H   0  0  0  0  0  0  0  0  0  0  0  0
    7.7641   -2.7009    0.7184 H   0  0  0  0  0  0  0  0  0  0  0  0
    7.3373   -3.8468   -1.4550 H   0  0  0  0  0  0  0  0  0  0  0  0
    7.6934   -2.1672   -1.7204 H   0  0  0  0  0  0  0  0  0  0  0  0
    5.7480   -3.5005    1.8822 H   0  0  0  0  0  0  0  0  0  0  0  0
    6.2358   -4.6543    0.6606 H   0  0  0  0  0  0  0  0  0  0  0  0
    2.8956   -1.9875   -0.0758 H   0  0  0  0  0  0  0  0  0  0  0  0
    3.7393   -1.9395    1.4498 H   0  0  0  0  0  0  0  0  0  0  0  0
  1  5  1  0
  1  2  2  0
  1 16  1  0
  2  3  1  0
  3  4  2  0
  4  5  1  0
  6  5  1  1
  6 14  1  0
  6 15  1  0
  6  7  1  0
  7  8  1  0
  7 17  1  0
  7 18  1  0
  8 13  1  0
  8  9  1  0
  8 19  1  6
  9 10  1  0
  9 20  1  0
  9 21  1  0
 10 11  1  0
 10 15  1  0
 10 22  1  6
 11 12  1  0
 11 23  1  0
 11 24  1  0
 12 13  1  0
 12 14  1  0
 12 25  1  1
 13 26  1  0
 13 27  1  0
 14 28  1  0
 14 29  1  0
 15 30  1  0
 15 31  1  0
M  END
>  <i_m_ct_stereo_status>  (258) 
1

>  <s_m_source_file>  (258) 
/var/tmp/pbs.5076255.sched01/tmppxy1xzy0/80exjuxwr6.sdf

>  <i_m_source_file_index>  (258) 
38

>  <i_lp_mmshare_version>  (258) 
48012

>  <i_f3d_flags>  (258) 
0

>  <s_epik_input>  (258) 
bjFubltjSF1uMUMyM1tDSDJdW0NASF00W0NIMl1bQ0BASF0oW0NIMl0zKVtDSDJdW0NASF0oW0NIMl00KVtDSDJdMg==

>  <s_epik_cmdline>  (258) 
J2VwaWtfcHl0aG9uJywgJy1waHQnLCAnMi4wJywgJy1waCcsICc3LjAnLCAnLXRuJywgJzgnLCAnLW1hJywgJzIwMCcsICctaW1hZScsICc8aW5maWxlLm1hZT4nLCAnLW9tYWUnLCAnPG91dGZpbGUubWFlPic=

>  <r_lp_tautomer_probability>  (258) 
1

>  <r_epik_Ionization_Penalty>  (258) 
2.80797e-08

>  <r_epik_Ionization_Penalty_Charging>  (258) 
0

>  <r_epik_Ionization_Penalty_Neutral>  (258) 
2.80797e-08

>  <r_epik_State_Penalty>  (258) 
-0

>  <r_epik_Charging_Adjusted_Penalty>  (258) 
0

>  <i_epik_Tot_Q>  (258) 
0

>  <i_epik_Tot_abs_Q>  (258) 
0

>  <s_lp_Force_Field>  (258) 
OPLS3e

>  <r_lp_Energy>  (258) 
7.28174

>  <b_lp_Chiralities_Consistent>  (258) 
1

>  <s_lp_Variant>  (258) 
86:0-1

>  <s_i_glide_gridfile>  (258) 
pfpi4k_grid

>  <i_i_glide_lignum>  (258) 
38

>  <i_i_glide_rotatable_bonds>  (258) 
1

>  <r_i_docking_score>  (258) 
-3.49248

>  <r_i_glide_ligand_efficiency>  (258) 
-0.232832

>  <r_i_glide_ligand_efficiency_sa>  (258) 
-0.574213

>  <r_i_glide_ligand_efficiency_ln>  (258) 
-0.941864

>  <r_i_glide_gscore>  (258) 
-3.49248

>  <r_i_glide_lipo>  (258) 
-0.291919

>  <r_i_glide_hbond>  (258) 
0

>  <r_i_glide_metal>  (258) 
-0

>  <r_i_glide_rewards>  (258) 
-2.01633

>  <r_i_glide_evdw>  (258) 
-20.5319

>  <r_i_glide_ecoul>  (258) 
-2.6992

>  <r_i_glide_erotb>  (258) 
0.394182

>  <r_i_glide_esite>  (258) 
-0.146939

>  <r_i_glide_emodel>  (258) 
-28.1087

>  <r_i_glide_energy>  (258) 
-23.2311

>  <r_i_glide_einternal>  (258) 
0.210132

>  <r_i_glide_intrahb_reward>  (258) 
-0

>  <i_i_glide_confnum>  (258) 
5

>  <i_i_glide_posenum>  (258) 
1

>  <r_i_glide_eff_state_penalty>  (258) 
0

>  <ligand_id>  (258) 
86

>  <original_smiles>  (258) 
c1nnnn1C12CC3CC(CC(C3)C1)C2

>  <smiles>  (258) 
[H]c1nnnn1C12C([H])([H])C3([H])C([H])([H])C([H])(C([H])([H])C([H])(C3([H])[H])C1([H])[H])C2([H])[H]

$$$$
86:0:1
     RDKit          3D

 31 34  0  0  1  0  0  0  0  0999 V2000
    3.4247   -6.2434    1.5363 C   0  0  0  0  0  0  0  0  0  0  0  0
    2.4337   -7.1053    1.7217 N   0  0  0  0  0  0  0  0  0  0  0  0
    1.4273   -6.6079    0.9085 N   0  0  0  0  0  0  0  0  0  0  0  0
    1.8118   -5.5268    0.2932 N   0  0  0  0  0  0  0  0  0  0  0  0
    3.0841   -5.2670    0.6841 N   0  0  0  0  0  0  0  0  0  0  0  0
    3.8343   -4.0949    0.2238 C   0  0  2  0  0  0  0  0  0  0  0  0
    4.1608   -3.1773    1.4340 C   0  0  0  0  0  0  0  0  0  0  0  0
    4.9889   -1.9603    0.9701 C   0  0  1  0  0  0  0  0  0  0  0  0
    6.3076   -2.4516    0.3378 C   0  0  0  0  0  0  0  0  0  0  0  0
    5.9870   -3.3355   -0.8841 C   0  0  2  0  0  0  0  0  0  0  0  0
    5.1840   -2.5274   -1.9228 C   0  0  0  0  0  0  0  0  0  0  0  0
    3.8692   -2.0428   -1.2804 C   0  0  2  0  0  0  0  0  0  0  0  0
    4.1749   -1.1520   -0.0603 C   0  0  0  0  0  0  0  0  0  0  0  0
    3.0429   -3.2585   -0.8255 C   0  0  0  0  0  0  0  0  0  0  0  0
    5.1626   -4.5578   -0.4261 C   0  0  0  0  0  0  0  0  0  0  0  0
    4.3833   -6.3017    2.0291 H   0  0  0  0  0  0  0  0  0  0  0  0
    3.2414   -2.8380    1.9175 H   0  0  0  0  0  0  0  0  0  0  0  0
    4.7221   -3.7238    2.1935 H   0  0  0  0  0  0  0  0  0  0  0  0
    5.2146   -1.3271    1.8295 H   0  0  0  0  0  0  0  0  0  0  0  0
    6.9277   -1.6068    0.0431 H   0  0  0  0  0  0  0  0  0  0  0  0
    6.8835   -3.0201    1.0707 H   0  0  0  0  0  0  0  0  0  0  0  0
    6.9190   -3.6784   -1.3337 H   0  0  0  0  0  0  0  0  0  0  0  0
    5.7694   -1.6796   -2.2762 H   0  0  0  0  0  0  0  0  0  0  0  0
    4.9711   -3.1494   -2.7936 H   0  0  0  0  0  0  0  0  0  0  0  0
    3.2908   -1.4732   -2.0083 H   0  0  0  0  0  0  0  0  0  0  0  0
    3.2386   -0.8129    0.3869 H   0  0  0  0  0  0  0  0  0  0  0  0
    4.7193   -0.2588   -0.3638 H   0  0  0  0  0  0  0  0  0  0  0  0
    2.7868   -3.8546   -1.7032 H   0  0  0  0  0  0  0  0  0  0  0  0
    2.0997   -2.9077   -0.4045 H   0  0  0  0  0  0  0  0  0  0  0  0
    5.7506   -5.1507    0.2768 H   0  0  0  0  0  0  0  0  0  0  0  0
    4.9550   -5.2100   -1.2775 H   0  0  0  0  0  0  0  0  0  0  0  0
  1  5  1  0
  1  2  2  0
  1 16  1  0
  2  3  1  0
  3  4  2  0
  4  5  1  0
  6  5  1  1
  6 14  1  0
  6 15  1  0
  6  7  1  0
  7  8  1  0
  7 17  1  0
  7 18  1  0
  8 13  1  0
  8  9  1  0
  8 19  1  1
  9 10  1  0
  9 20  1  0
  9 21  1  0
 10 11  1  0
 10 15  1  0
 10 22  1  6
 11 12  1  0
 11 23  1  0
 11 24  1  0
 12 13  1  0
 12 14  1  0
 12 25  1  6
 13 26  1  0
 13 27  1  0
 14 28  1  0
 14 29  1  0
 15 30  1  0
 15 31  1  0
M  END
>  <i_m_ct_stereo_status>  (259) 
1

>  <s_m_source_file>  (259) 
/var/tmp/pbs.5076255.sched01/tmppxy1xzy0/80exjuxwr6.sdf

>  <i_m_source_file_index>  (259) 
38

>  <i_lp_mmshare_version>  (259) 
48012

>  <i_f3d_flags>  (259) 
0

>  <s_epik_input>  (259) 
bjFubltjSF1uMUMyM1tDSDJdW0NASF00W0NIMl1bQ0BASF0oW0NIMl0zKVtDSDJdW0NASF0oW0NIMl00KVtDSDJdMg==

>  <s_epik_cmdline>  (259) 
J2VwaWtfcHl0aG9uJywgJy1waHQnLCAnMi4wJywgJy1waCcsICc3LjAnLCAnLXRuJywgJzgnLCAnLW1hJywgJzIwMCcsICctaW1hZScsICc8aW5maWxlLm1hZT4nLCAnLW9tYWUnLCAnPG91dGZpbGUubWFlPic=

>  <r_lp_tautomer_probability>  (259) 
1

>  <r_epik_Ionization_Penalty>  (259) 
2.80797e-08

>  <r_epik_Ionization_Penalty_Charging>  (259) 
0

>  <r_epik_Ionization_Penalty_Neutral>  (259) 
2.80797e-08

>  <r_epik_State_Penalty>  (259) 
-0

>  <r_epik_Charging_Adjusted_Penalty>  (259) 
0

>  <i_epik_Tot_Q>  (259) 
0

>  <i_epik_Tot_abs_Q>  (259) 
0

>  <s_lp_Force_Field>  (259) 
OPLS3e

>  <r_lp_Energy>  (259) 
7.28174

>  <b_lp_Chiralities_Consistent>  (259) 
1

>  <s_lp_Variant>  (259) 
86:0-1

>  <s_i_glide_gridfile>  (259) 
pfpi4k_grid

>  <i_i_glide_lignum>  (259) 
38

>  <i_i_glide_rotatable_bonds>  (259) 
1

>  <r_i_docking_score>  (259) 
-3.45596

>  <r_i_glide_ligand_efficiency>  (259) 
-0.230397

>  <r_i_glide_ligand_efficiency_sa>  (259) 
-0.568209

>  <r_i_glide_ligand_efficiency_ln>  (259) 
-0.932015

>  <r_i_glide_gscore>  (259) 
-3.45596

>  <r_i_glide_lipo>  (259) 
-0.324249

>  <r_i_glide_hbond>  (259) 
0

>  <r_i_glide_metal>  (259) 
-0

>  <r_i_glide_rewards>  (259) 
-2.07633

>  <r_i_glide_evdw>  (259) 
-20.1211

>  <r_i_glide_ecoul>  (259) 
-1.73521

>  <r_i_glide_erotb>  (259) 
0.394182

>  <r_i_glide_esite>  (259) 
-0.183226

>  <r_i_glide_emodel>  (259) 
-26.757

>  <r_i_glide_energy>  (259) 
-21.8563

>  <r_i_glide_einternal>  (259) 
0.158935

>  <r_i_glide_intrahb_reward>  (259) 
-0

>  <i_i_glide_confnum>  (259) 
1

>  <i_i_glide_posenum>  (259) 
16

>  <r_i_glide_eff_state_penalty>  (259) 
0

>  <ligand_id>  (259) 
86

>  <original_smiles>  (259) 
c1nnnn1C12CC3CC(CC(C3)C1)C2

>  <smiles>  (259) 
[H]c1nnnn1C12C([H])([H])C3([H])C([H])([H])C([H])(C([H])([H])C([H])(C3([H])[H])C1([H])[H])C2([H])[H]

$$$$
86:0:2
     RDKit          3D

 31 34  0  0  1  0  0  0  0  0999 V2000
    4.1171   -6.0395    0.9830 C   0  0  0  0  0  0  0  0  0  0  0  0
    3.0976   -6.8224    1.2910 N   0  0  0  0  0  0  0  0  0  0  0  0
    2.0003   -6.0934    0.8725 N   0  0  0  0  0  0  0  0  0  0  0  0
    2.3565   -4.9609    0.3459 N   0  0  0  0  0  0  0  0  0  0  0  0
    3.7119   -4.8875    0.4345 N   0  0  0  0  0  0  0  0  0  0  0  0
    4.4694   -3.7369   -0.0691 C   0  0  2  0  0  0  0  0  0  0  0  0
    5.9063   -3.7461    0.5323 C   0  0  0  0  0  0  0  0  0  0  0  0
    6.7245   -2.5516    0.0192 C   0  0  1  0  0  0  0  0  0  0  0  0
    6.8267   -2.6529   -1.5169 C   0  0  0  0  0  0  0  0  0  0  0  0
    5.4129   -2.5896   -2.1283 C   0  0  2  0  0  0  0  0  0  0  0  0
    4.7254   -1.2675   -1.7210 C   0  0  0  0  0  0  0  0  0  0  0  0
    4.6177   -1.1971   -0.1834 C   0  0  2  0  0  0  0  0  0  0  0  0
    6.0239   -1.2472    0.4466 C   0  0  0  0  0  0  0  0  0  0  0  0
    3.7843   -2.3928    0.3271 C   0  0  0  0  0  0  0  0  0  0  0  0
    4.5814   -3.7860   -1.6157 C   0  0  0  0  0  0  0  0  0  0  0  0
    5.1536   -6.3077    1.1597 H   0  0  0  0  0  0  0  0  0  0  0  0
    5.8621   -3.7247    1.6236 H   0  0  0  0  0  0  0  0  0  0  0  0
    6.4383   -4.6557    0.2495 H   0  0  0  0  0  0  0  0  0  0  0  0
    7.7223   -2.5938    0.4577 H   0  0  0  0  0  0  0  0  0  0  0  0
    7.4447   -1.8601   -1.9103 H   0  0  0  0  0  0  0  0  0  0  0  0
    7.3230   -3.5779   -1.8060 H   0  0  0  0  0  0  0  0  0  0  0  0
    5.4882   -2.6427   -3.2140 H   0  0  0  0  0  0  0  0  0  0  0  0
    5.2857   -0.4121   -2.0978 H   0  0  0  0  0  0  0  0  0  0  0  0
    3.7319   -1.2049   -2.1682 H   0  0  0  0  0  0  0  0  0  0  0  0
    4.1231   -0.2685    0.1034 H   0  0  0  0  0  0  0  0  0  0  0  0
    5.9436   -1.2102    1.5345 H   0  0  0  0  0  0  0  0  0  0  0  0
    6.6112   -0.3803    0.1486 H   0  0  0  0  0  0  0  0  0  0  0  0
    2.7787   -2.3242   -0.0926 H   0  0  0  0  0  0  0  0  0  0  0  0
    3.6682   -2.3326    1.4100 H   0  0  0  0  0  0  0  0  0  0  0  0
    5.0346   -4.7255   -1.9325 H   0  0  0  0  0  0  0  0  0  0  0  0
    3.5890   -3.7662   -2.0688 H   0  0  0  0  0  0  0  0  0  0  0  0
  1  5  1  0
  1  2  2  0
  1 16  1  0
  2  3  1  0
  3  4  2  0
  4  5  1  0
  6  5  1  1
  6 14  1  0
  6 15  1  0
  6  7  1  0
  7  8  1  0
  7 17  1  0
  7 18  1  0
  8 13  1  0
  8  9  1  0
  8 19  1  1
  9 10  1  0
  9 20  1  0
  9 21  1  0
 10 11  1  0
 10 15  1  0
 10 22  1  6
 11 12  1  0
 11 23  1  0
 11 24  1  0
 12 13  1  0
 12 14  1  0
 12 25  1  6
 13 26  1  0
 13 27  1  0
 14 28  1  0
 14 29  1  0
 15 30  1  0
 15 31  1  0
M  END
>  <i_m_ct_stereo_status>  (260) 
1

>  <s_m_source_file>  (260) 
/var/tmp/pbs.5076255.sched01/tmppxy1xzy0/80exjuxwr6.sdf

>  <i_m_source_file_index>  (260) 
38

>  <i_lp_mmshare_version>  (260) 
48012

>  <i_f3d_flags>  (260) 
0

>  <s_epik_input>  (260) 
bjFubltjSF1uMUMyM1tDSDJdW0NASF00W0NIMl1bQ0BASF0oW0NIMl0zKVtDSDJdW0NASF0oW0NIMl00KVtDSDJdMg==

>  <s_epik_cmdline>  (260) 
J2VwaWtfcHl0aG9uJywgJy1waHQnLCAnMi4wJywgJy1waCcsICc3LjAnLCAnLXRuJywgJzgnLCAnLW1hJywgJzIwMCcsICctaW1hZScsICc8aW5maWxlLm1hZT4nLCAnLW9tYWUnLCAnPG91dGZpbGUubWFlPic=

>  <r_lp_tautomer_probability>  (260) 
1

>  <r_epik_Ionization_Penalty>  (260) 
2.80797e-08

>  <r_epik_Ionization_Penalty_Charging>  (260) 
0

>  <r_epik_Ionization_Penalty_Neutral>  (260) 
2.80797e-08

>  <r_epik_State_Penalty>  (260) 
-0

>  <r_epik_Charging_Adjusted_Penalty>  (260) 
0

>  <i_epik_Tot_Q>  (260) 
0

>  <i_epik_Tot_abs_Q>  (260) 
0

>  <s_lp_Force_Field>  (260) 
OPLS3e

>  <r_lp_Energy>  (260) 
7.28174

>  <b_lp_Chiralities_Consistent>  (260) 
1

>  <s_lp_Variant>  (260) 
86:0-1

>  <s_i_glide_gridfile>  (260) 
pfpi4k_grid

>  <i_i_glide_lignum>  (260) 
38

>  <i_i_glide_rotatable_bonds>  (260) 
1

>  <r_i_docking_score>  (260) 
-3.31212

>  <r_i_glide_ligand_efficiency>  (260) 
-0.220808

>  <r_i_glide_ligand_efficiency_sa>  (260) 
-0.544559

>  <r_i_glide_ligand_efficiency_ln>  (260) 
-0.893223

>  <r_i_glide_gscore>  (260) 
-3.31212

>  <r_i_glide_lipo>  (260) 
-0.294238

>  <r_i_glide_hbond>  (260) 
0

>  <r_i_glide_metal>  (260) 
-0

>  <r_i_glide_rewards>  (260) 
-2.12273

>  <r_i_glide_evdw>  (260) 
-22.0821

>  <r_i_glide_ecoul>  (260) 
-0.571942

>  <r_i_glide_erotb>  (260) 
0.394182

>  <r_i_glide_esite>  (260) 
-0.0994368

>  <r_i_glide_emodel>  (260) 
-27.2648

>  <r_i_glide_energy>  (260) 
-22.6541

>  <r_i_glide_einternal>  (260) 
0.164092

>  <r_i_glide_intrahb_reward>  (260) 
-0

>  <i_i_glide_confnum>  (260) 
1

>  <i_i_glide_posenum>  (260) 
7

>  <r_i_glide_eff_state_penalty>  (260) 
0

>  <ligand_id>  (260) 
86

>  <original_smiles>  (260) 
c1nnnn1C12CC3CC(CC(C3)C1)C2

>  <smiles>  (260) 
[H]c1nnnn1C12C([H])([H])C3([H])C([H])([H])C([H])(C([H])([H])C([H])(C3([H])[H])C1([H])[H])C2([H])[H]

$$$$
87:0:0
     RDKit          3D

 70 73  0  0  1  0  0  0  0  0999 V2000
   -0.2554   -8.6586    5.2342 C   0  0  0  0  0  0  0  0  0  0  0  0
    0.8714   -8.3638    4.5661 C   0  0  0  0  0  0  0  0  0  0  0  0
    1.2366   -9.0934    3.2761 C   0  0  1  0  0  0  0  0  0  0  0  0
    0.0916   -9.3559    2.4830 O   0  0  0  0  0  0  0  0  0  0  0  0
    2.3325   -8.2853    2.5323 C   0  0  2  0  0  0  0  0  0  0  0  0
    2.5835   -8.9149    1.2844 O   0  0  0  0  0  0  0  0  0  0  0  0
    3.5798   -8.4531    3.4425 C   0  0  0  0  0  0  0  0  0  0  0  0
    3.2805   -7.9346    4.8652 C   0  0  0  0  0  0  0  0  0  0  0  0
    1.8875   -7.2420    4.9509 C   0  0  2  0  0  0  0  0  0  0  0  0
    1.6812   -6.7633    6.4266 C   0  0  0  0  0  0  0  0  0  0  0  0
    1.8298   -7.8526    7.5080 C   0  0  0  0  0  0  0  0  0  0  0  0
    1.0599   -7.5010    8.6488 O   0  0  0  0  0  0  0  0  0  0  0  0
    0.6205   -8.4213    9.5351 C   0  0  0  0  0  0  0  0  0  0  0  0
    1.1543   -9.8440    9.3486 C   0  0  0  0  0  0  0  0  0  0  0  0
   -0.1524   -8.1609   10.4481 O   0  0  0  0  0  0  0  0  0  0  0  0
    1.7364   -6.0865    3.8352 C   0  0  1  0  0  0  0  0  0  0  0  0
    0.3392   -5.7943    3.9085 O   0  0  0  0  0  0  0  0  0  0  0  0
    2.4104   -4.6295    4.0798 C   0  0  1  0  0  0  0  0  0  0  0  0
    1.5776   -3.8042    5.1384 C   0  0  0  0  0  0  0  0  0  0  0  0
    3.9035   -4.6262    4.5969 C   0  0  1  0  0  0  0  0  0  0  0  0
    4.8023   -5.3699    3.8146 O   0  0  0  0  0  0  0  0  0  0  0  0
    4.5522   -3.2269    4.7006 C   0  0  0  0  0  0  0  0  0  0  0  0
    4.3911   -2.3841    3.4272 C   0  0  0  0  0  0  0  0  0  0  0  0
    2.9306   -2.3391    2.9234 C   0  0  1  0  0  0  0  0  0  0  0  0
    2.8075   -1.4593    1.6634 C   0  0  0  0  0  0  0  0  0  0  0  0
    2.3375   -3.7792    2.7573 C   0  0  1  0  0  0  0  0  0  0  0  0
    2.9440   -4.4487    1.5069 C   0  0  0  0  0  0  0  0  0  0  0  0
    2.9188   -5.9840    1.3798 C   0  0  1  0  0  0  0  0  0  0  0  0
    4.2530   -6.4712    1.3748 O   0  0  0  0  0  0  0  0  0  0  0  0
    5.0080   -6.2386    0.1912 C   0  0  0  0  0  0  0  0  0  0  0  0
    1.9716   -6.7416    2.3767 C   0  0  1  0  0  0  0  0  0  0  0  0
    0.7645   -6.7283    1.6086 O   0  0  0  0  0  0  0  0  0  0  0  0
   -0.5599   -8.1435    6.1263 H   0  0  0  0  0  0  0  0  0  0  0  0
   -0.9070   -9.4361    4.8759 H   0  0  0  0  0  0  0  0  0  0  0  0
    1.6274  -10.0731    3.5622 H   0  0  0  0  0  0  0  0  0  0  0  0
    0.3562   -9.7159    1.6455 H   0  0  0  0  0  0  0  0  0  0  0  0
    2.9023   -9.7982    1.4508 H   0  0  0  0  0  0  0  0  0  0  0  0
    3.8579   -9.5066    3.5120 H   0  0  0  0  0  0  0  0  0  0  0  0
    4.4751   -7.9758    3.0586 H   0  0  0  0  0  0  0  0  0  0  0  0
    3.2900   -8.8045    5.5275 H   0  0  0  0  0  0  0  0  0  0  0  0
    4.0820   -7.3049    5.2480 H   0  0  0  0  0  0  0  0  0  0  0  0
    2.3998   -5.9920    6.6966 H   0  0  0  0  0  0  0  0  0  0  0  0
    0.6899   -6.3226    6.5285 H   0  0  0  0  0  0  0  0  0  0  0  0
    1.4671   -8.7973    7.1076 H   0  0  0  0  0  0  0  0  0  0  0  0
    2.8793   -7.9856    7.7851 H   0  0  0  0  0  0  0  0  0  0  0  0
    0.9098  -10.2289    8.3579 H   0  0  0  0  0  0  0  0  0  0  0  0
    0.7380  -10.5257   10.0942 H   0  0  0  0  0  0  0  0  0  0  0  0
    2.2368   -9.8623    9.4663 H   0  0  0  0  0  0  0  0  0  0  0  0
    0.1417   -5.5660    4.8109 H   0  0  0  0  0  0  0  0  0  0  0  0
    2.0645   -2.8932    5.4718 H   0  0  0  0  0  0  0  0  0  0  0  0
    1.3631   -4.3145    6.0652 H   0  0  0  0  0  0  0  0  0  0  0  0
    0.6149   -3.4711    4.7460 H   0  0  0  0  0  0  0  0  0  0  0  0
    3.9416   -5.0577    5.5919 H   0  0  0  0  0  0  0  0  0  0  0  0
    4.4954   -6.2693    3.7527 H   0  0  0  0  0  0  0  0  0  0  0  0
    4.1539   -2.6785    5.5458 H   0  0  0  0  0  0  0  0  0  0  0  0
    5.6159   -3.3340    4.9239 H   0  0  0  0  0  0  0  0  0  0  0  0
    4.7402   -1.3724    3.6251 H   0  0  0  0  0  0  0  0  0  0  0  0
    5.0619   -2.7690    2.6560 H   0  0  0  0  0  0  0  0  0  0  0  0
    2.3492   -1.8021    3.6664 H   0  0  0  0  0  0  0  0  0  0  0  0
    3.4469   -1.8047    0.8484 H   0  0  0  0  0  0  0  0  0  0  0  0
    3.0963   -0.4302    1.8842 H   0  0  0  0  0  0  0  0  0  0  0  0
    1.7788   -1.4330    1.2948 H   0  0  0  0  0  0  0  0  0  0  0  0
    1.2784   -3.6532    2.5272 H   0  0  0  0  0  0  0  0  0  0  0  0
    2.4509   -4.0359    0.6306 H   0  0  0  0  0  0  0  0  0  0  0  0
    3.9780   -4.1217    1.4183 H   0  0  0  0  0  0  0  0  0  0  0  0
    2.5738   -6.2109    0.3667 H   0  0  0  0  0  0  0  0  0  0  0  0
    6.0095   -6.6294    0.3637 H   0  0  0  0  0  0  0  0  0  0  0  0
    5.1156   -5.1830   -0.0568 H   0  0  0  0  0  0  0  0  0  0  0  0
    4.5778   -6.7507   -0.6693 H   0  0  0  0  0  0  0  0  0  0  0  0
    0.7679   -7.5353    1.1106 H   0  0  0  0  0  0  0  0  0  0  0  0
  1  2  2  0
  1 33  1  0
  1 34  1  0
  2  9  1  0
  2  3  1  0
  3  4  1  0
  3  5  1  0
  3 35  1  1
  4 36  1  0
  5 31  1  0
  5  6  1  6
  5  7  1  0
  6 37  1  0
  7  8  1  0
  7 38  1  0
  7 39  1  0
  8  9  1  0
  8 40  1  0
  8 41  1  0
  9 10  1  1
  9 16  1  0
 10 11  1  0
 10 42  1  0
 10 43  1  0
 11 12  1  0
 11 44  1  0
 11 45  1  0
 12 13  1  0
 13 14  1  0
 13 15  2  0
 14 46  1  0
 14 47  1  0
 14 48  1  0
 16 31  1  0
 16 17  1  6
 16 18  1  0
 17 49  1  0
 18 26  1  0
 18 19  1  1
 18 20  1  0
 19 50  1  0
 19 51  1  0
 19 52  1  0
 20 21  1  0
 20 22  1  0
 20 53  1  1
 21 54  1  0
 22 23  1  0
 22 55  1  0
 22 56  1  0
 23 24  1  0
 23 57  1  0
 23 58  1  0
 24 25  1  0
 24 26  1  0
 24 59  1  1
 25 60  1  0
 25 61  1  0
 25 62  1  0
 26 27  1  0
 26 63  1  6
 27 28  1  0
 27 64  1  0
 27 65  1  0
 28 29  1  0
 28 31  1  0
 28 66  1  6
 29 30  1  0
 30 67  1  0
 30 68  1  0
 30 69  1  0
 31 32  1  6
 32 70  1  0
M  END
>  <i_m_ct_stereo_status>  (261) 
1

>  <s_m_source_file>  (261) 
/var/tmp/pbs.5076255.sched01/tmppxy1xzy0/80exjuxwr6.sdf

>  <i_m_source_file_index>  (261) 
39

>  <i_lp_mmshare_version>  (261) 
48012

>  <i_f3d_flags>  (261) 
0

>  <s_epik_input>  (261) 
W0NIM11DKD1PKU9bQ0gyXVtDSDJdW0NAQF0oW0NIMl1bQ0gyXTEpKEMoPVtDSDJdKVtDQEhdMltPSF0pW0NAXShbT0hdKShbQ0BdMyhbT0hdKVtDQEBdMTJbT0hdKVtDQF00KFtDSDNdKVtDQEhdKFtDSDJdW0NASF0zT1tDSDNdKVtDQEhdKFtDSDNdKVtDSDJdW0NIMl1bQ0BASF00W09IXQ==

>  <s_epik_cmdline>  (261) 
J2VwaWtfcHl0aG9uJywgJy1waHQnLCAnMi4wJywgJy1waCcsICc3LjAnLCAnLXRuJywgJzgnLCAnLW1hJywgJzIwMCcsICctaW1hZScsICc8aW5maWxlLm1hZT4nLCAnLW9tYWUnLCAnPG91dGZpbGUubWFlPic=

>  <r_lp_tautomer_probability>  (261) 
1

>  <r_epik_Ionization_Penalty>  (261) 
1.52793e-06

>  <r_epik_Ionization_Penalty_Charging>  (261) 
0

>  <r_epik_Ionization_Penalty_Neutral>  (261) 
1.52793e-06

>  <r_epik_State_Penalty>  (261) 
-0

>  <r_epik_Charging_Adjusted_Penalty>  (261) 
0

>  <i_epik_Tot_Q>  (261) 
0

>  <i_epik_Tot_abs_Q>  (261) 
0

>  <s_epik_Chemistry_Notes>  (261) 
This compound has an ester and may undergo hydrolysis at high or low pH.

>  <s_lp_Force_Field>  (261) 
OPLS3e

>  <r_lp_Energy>  (261) 
93.8488

>  <b_lp_Chiralities_Consistent>  (261) 
1

>  <s_lp_Variant>  (261) 
87:0-1

>  <s_i_glide_gridfile>  (261) 
pfpi4k_grid

>  <i_i_glide_lignum>  (261) 
39

>  <i_i_glide_rotatable_bonds>  (261) 
10

>  <r_i_docking_score>  (261) 
-2.85502

>  <r_i_glide_ligand_efficiency>  (261) 
-0.0892195

>  <r_i_glide_ligand_efficiency_sa>  (261) 
-0.283254

>  <r_i_glide_ligand_efficiency_ln>  (261) 
-0.639318

>  <r_i_glide_gscore>  (261) 
-2.85502

>  <r_i_glide_lipo>  (261) 
-0.162766

>  <r_i_glide_hbond>  (261) 
-0.253622

>  <r_i_glide_metal>  (261) 
-0

>  <r_i_glide_rewards>  (261) 
-0.309861

>  <r_i_glide_evdw>  (261) 
-20.5076

>  <r_i_glide_ecoul>  (261) 
-9.06869

>  <r_i_glide_erotb>  (261) 
0.291581

>  <r_i_glide_esite>  (261) 
-0.0346702

>  <r_i_glide_emodel>  (261) 
-30.3942

>  <r_i_glide_energy>  (261) 
-29.5763

>  <r_i_glide_einternal>  (261) 
9.59388

>  <r_i_glide_intrahb_reward>  (261) 
-0

>  <i_i_glide_confnum>  (261) 
5

>  <i_i_glide_posenum>  (261) 
11

>  <r_i_glide_eff_state_penalty>  (261) 
0

>  <ligand_id>  (261) 
87

>  <original_smiles>  (261) 
C=C1C(O)C2(O)CCC1(CCOC(C)=O)C1(O)C3(C)C(O)CCC(C)C3CC(OC)C21O

>  <smiles>  (261) 
[H]OC1([H])C(=C([H])[H])C2(C([H])([H])C([H])([H])OC(=O)C([H])([H])[H])C([H])([H])C([H])([H])C1(O[H])C1(O[H])C([H])(OC([H])([H])[H])C([H])([H])C3([H])C([H])(C([H])([H])[H])C([H])([H])C([H])([H])C([H])(O[H])C3(C([H])([H])[H])C12O[H]

$$$$
87:0:1
     RDKit          3D

 70 73  0  0  1  0  0  0  0  0999 V2000
    4.5143   -7.7802    0.5124 C   0  0  0  0  0  0  0  0  0  0  0  0
    4.5926   -6.8853    1.5213 C   0  0  0  0  0  0  0  0  0  0  0  0
    4.8158   -5.3990    1.2583 C   0  0  1  0  0  0  0  0  0  0  0  0
    4.0947   -4.9429    0.1311 O   0  0  0  0  0  0  0  0  0  0  0  0
    4.4835   -4.5997    2.5499 C   0  0  2  0  0  0  0  0  0  0  0  0
    4.6201   -3.2174    2.2895 O   0  0  0  0  0  0  0  0  0  0  0  0
    5.6118   -4.9964    3.5211 C   0  0  0  0  0  0  0  0  0  0  0  0
    5.6297   -6.5198    3.7291 C   0  0  0  0  0  0  0  0  0  0  0  0
    4.4249   -7.2188    3.0351 C   0  0  2  0  0  0  0  0  0  0  0  0
    4.5663   -8.7583    3.2974 C   0  0  0  0  0  0  0  0  0  0  0  0
    5.9056   -9.4340    2.9150 C   0  0  0  0  0  0  0  0  0  0  0  0
    5.8321  -10.8132    3.2563 O   0  0  0  0  0  0  0  0  0  0  0  0
    6.3954  -11.7488    2.4797 C   0  0  0  0  0  0  0  0  0  0  0  0
    6.2093  -13.1555    3.0172 C   0  0  0  0  0  0  0  0  0  0  0  0
    7.0121  -11.5457    1.4268 O   0  0  0  0  0  0  0  0  0  0  0  0
    3.0326   -6.5479    3.5158 C   0  0  1  0  0  0  0  0  0  0  0  0
    2.0971   -7.1264    2.5978 O   0  0  0  0  0  0  0  0  0  0  0  0
    2.3699   -6.9330    4.9450 C   0  0  1  0  0  0  0  0  0  0  0  0
    1.7276   -8.3760    4.8838 C   0  0  0  0  0  0  0  0  0  0  0  0
    3.3436   -6.9356    6.1886 C   0  0  1  0  0  0  0  0  0  0  0  0
    4.0773   -5.7482    6.3682 O   0  0  0  0  0  0  0  0  0  0  0  0
    2.6608   -7.1878    7.5492 C   0  0  0  0  0  0  0  0  0  0  0  0
    1.4383   -6.2953    7.7921 C   0  0  0  0  0  0  0  0  0  0  0  0
    0.4478   -6.3061    6.6052 C   0  0  1  0  0  0  0  0  0  0  0  0
   -0.7754   -5.4245    6.9079 C   0  0  0  0  0  0  0  0  0  0  0  0
    1.1676   -5.9641    5.2612 C   0  0  1  0  0  0  0  0  0  0  0  0
    1.4965   -4.4614    5.2246 C   0  0  0  0  0  0  0  0  0  0  0  0
    2.5940   -3.9621    4.2761 C   0  0  1  0  0  0  0  0  0  0  0  0
    3.6401   -3.4212    5.0663 O   0  0  0  0  0  0  0  0  0  0  0  0
    3.4188   -2.1260    5.6139 C   0  0  0  0  0  0  0  0  0  0  0  0
    3.0734   -4.9775    3.1751 C   0  0  1  0  0  0  0  0  0  0  0  0
    2.1185   -4.6783    2.1545 O   0  0  0  0  0  0  0  0  0  0  0  0
    4.3141   -8.8253    0.6808 H   0  0  0  0  0  0  0  0  0  0  0  0
    4.6126   -7.4696   -0.5099 H   0  0  0  0  0  0  0  0  0  0  0  0
    5.8733   -5.2921    1.0148 H   0  0  0  0  0  0  0  0  0  0  0  0
    4.0491   -5.6281   -0.5201 H   0  0  0  0  0  0  0  0  0  0  0  0
    4.0872   -3.0159    1.5308 H   0  0  0  0  0  0  0  0  0  0  0  0
    6.5708   -4.6982    3.0944 H   0  0  0  0  0  0  0  0  0  0  0  0
    5.5614   -4.4885    4.4807 H   0  0  0  0  0  0  0  0  0  0  0  0
    6.5648   -6.8712    3.2852 H   0  0  0  0  0  0  0  0  0  0  0  0
    5.7047   -6.7697    4.7850 H   0  0  0  0  0  0  0  0  0  0  0  0
    4.4577   -8.9443    4.3591 H   0  0  0  0  0  0  0  0  0  0  0  0
    3.7619   -9.2987    2.7960 H   0  0  0  0  0  0  0  0  0  0  0  0
    6.1261   -9.2848    1.8559 H   0  0  0  0  0  0  0  0  0  0  0  0
    6.7391   -9.0099    3.4746 H   0  0  0  0  0  0  0  0  0  0  0  0
    6.6279  -13.2468    4.0217 H   0  0  0  0  0  0  0  0  0  0  0  0
    6.7078  -13.8756    2.3704 H   0  0  0  0  0  0  0  0  0  0  0  0
    5.1478  -13.4029    3.0533 H   0  0  0  0  0  0  0  0  0  0  0  0
    2.0884   -8.0577    2.7339 H   0  0  0  0  0  0  0  0  0  0  0  0
    1.4222   -8.7626    5.8483 H   0  0  0  0  0  0  0  0  0  0  0  0
    2.3750   -9.1486    4.4956 H   0  0  0  0  0  0  0  0  0  0  0  0
    0.8169   -8.4014    4.2811 H   0  0  0  0  0  0  0  0  0  0  0  0
    4.0766   -7.7217    6.0623 H   0  0  0  0  0  0  0  0  0  0  0  0
    3.4731   -5.0153    6.4175 H   0  0  0  0  0  0  0  0  0  0  0  0
    2.3662   -8.2268    7.6435 H   0  0  0  0  0  0  0  0  0  0  0  0
    3.3842   -7.0366    8.3525 H   0  0  0  0  0  0  0  0  0  0  0  0
    0.9282   -6.6412    8.6909 H   0  0  0  0  0  0  0  0  0  0  0  0
    1.7700   -5.2811    8.0229 H   0  0  0  0  0  0  0  0  0  0  0  0
    0.0319   -7.3075    6.5399 H   0  0  0  0  0  0  0  0  0  0  0  0
   -0.5058   -4.3874    7.1193 H   0  0  0  0  0  0  0  0  0  0  0  0
   -1.3108   -5.8023    7.7802 H   0  0  0  0  0  0  0  0  0  0  0  0
   -1.4796   -5.4365    6.0750 H   0  0  0  0  0  0  0  0  0  0  0  0
    0.4287   -6.1049    4.4620 H   0  0  0  0  0  0  0  0  0  0  0  0
    0.5871   -3.9447    4.9537 H   0  0  0  0  0  0  0  0  0  0  0  0
    1.7258   -4.1153    6.2435 H   0  0  0  0  0  0  0  0  0  0  0  0
    2.1813   -3.0890    3.7524 H   0  0  0  0  0  0  0  0  0  0  0  0
    4.3016   -1.8415    6.1865 H   0  0  0  0  0  0  0  0  0  0  0  0
    2.5652   -2.0949    6.2928 H   0  0  0  0  0  0  0  0  0  0  0  0
    3.2701   -1.3788    4.8319 H   0  0  0  0  0  0  0  0  0  0  0  0
    2.2974   -3.8113    1.8354 H   0  0  0  0  0  0  0  0  0  0  0  0
  1  2  2  0
  1 33  1  0
  1 34  1  0
  2  9  1  0
  2  3  1  0
  3  4  1  0
  3  5  1  0
  3 35  1  6
  4 36  1  0
  5 31  1  0
  5  6  1  6
  5  7  1  0
  6 37  1  0
  7  8  1  0
  7 38  1  0
  7 39  1  0
  8  9  1  0
  8 40  1  0
  8 41  1  0
  9 10  1  6
  9 16  1  0
 10 11  1  0
 10 42  1  0
 10 43  1  0
 11 12  1  0
 11 44  1  0
 11 45  1  0
 12 13  1  0
 13 14  1  0
 13 15  2  0
 14 46  1  0
 14 47  1  0
 14 48  1  0
 16 31  1  0
 16 17  1  6
 16 18  1  0
 17 49  1  0
 18 26  1  0
 18 19  1  6
 18 20  1  0
 19 50  1  0
 19 51  1  0
 19 52  1  0
 20 21  1  0
 20 22  1  0
 20 53  1  6
 21 54  1  0
 22 23  1  0
 22 55  1  0
 22 56  1  0
 23 24  1  0
 23 57  1  0
 23 58  1  0
 24 25  1  0
 24 26  1  0
 24 59  1  6
 25 60  1  0
 25 61  1  0
 25 62  1  0
 26 27  1  0
 26 63  1  6
 27 28  1  0
 27 64  1  0
 27 65  1  0
 28 29  1  0
 28 31  1  0
 28 66  1  6
 29 30  1  0
 30 67  1  0
 30 68  1  0
 30 69  1  0
 31 32  1  6
 32 70  1  0
M  END
>  <i_m_ct_stereo_status>  (262) 
1

>  <s_m_source_file>  (262) 
/var/tmp/pbs.5076255.sched01/tmppxy1xzy0/80exjuxwr6.sdf

>  <i_m_source_file_index>  (262) 
39

>  <i_lp_mmshare_version>  (262) 
48012

>  <i_f3d_flags>  (262) 
0

>  <s_epik_input>  (262) 
W0NIM11DKD1PKU9bQ0gyXVtDSDJdW0NAQF0oW0NIMl1bQ0gyXTEpKEMoPVtDSDJdKVtDQEhdMltPSF0pW0NAXShbT0hdKShbQ0BdMyhbT0hdKVtDQEBdMTJbT0hdKVtDQF00KFtDSDNdKVtDQEhdKFtDSDJdW0NASF0zT1tDSDNdKVtDQEhdKFtDSDNdKVtDSDJdW0NIMl1bQ0BASF00W09IXQ==

>  <s_epik_cmdline>  (262) 
J2VwaWtfcHl0aG9uJywgJy1waHQnLCAnMi4wJywgJy1waCcsICc3LjAnLCAnLXRuJywgJzgnLCAnLW1hJywgJzIwMCcsICctaW1hZScsICc8aW5maWxlLm1hZT4nLCAnLW9tYWUnLCAnPG91dGZpbGUubWFlPic=

>  <r_lp_tautomer_probability>  (262) 
1

>  <r_epik_Ionization_Penalty>  (262) 
1.52793e-06

>  <r_epik_Ionization_Penalty_Charging>  (262) 
0

>  <r_epik_Ionization_Penalty_Neutral>  (262) 
1.52793e-06

>  <r_epik_State_Penalty>  (262) 
-0

>  <r_epik_Charging_Adjusted_Penalty>  (262) 
0

>  <i_epik_Tot_Q>  (262) 
0

>  <i_epik_Tot_abs_Q>  (262) 
0

>  <s_epik_Chemistry_Notes>  (262) 
This compound has an ester and may undergo hydrolysis at high or low pH.

>  <s_lp_Force_Field>  (262) 
OPLS3e

>  <r_lp_Energy>  (262) 
93.8488

>  <b_lp_Chiralities_Consistent>  (262) 
1

>  <s_lp_Variant>  (262) 
87:0-1

>  <s_i_glide_gridfile>  (262) 
pfpi4k_grid

>  <i_i_glide_lignum>  (262) 
39

>  <i_i_glide_rotatable_bonds>  (262) 
10

>  <r_i_docking_score>  (262) 
-2.72289

>  <r_i_glide_ligand_efficiency>  (262) 
-0.0850904

>  <r_i_glide_ligand_efficiency_sa>  (262) 
-0.270145

>  <r_i_glide_ligand_efficiency_ln>  (262) 
-0.60973

>  <r_i_glide_gscore>  (262) 
-2.72289

>  <r_i_glide_lipo>  (262) 
-0.275373

>  <r_i_glide_hbond>  (262) 
-0.285677

>  <r_i_glide_metal>  (262) 
-0

>  <r_i_glide_rewards>  (262) 
-0.809861

>  <r_i_glide_evdw>  (262) 
-17.8627

>  <r_i_glide_ecoul>  (262) 
-4.60968

>  <r_i_glide_erotb>  (262) 
0.291581

>  <r_i_glide_esite>  (262) 
-0.0589732

>  <r_i_glide_emodel>  (262) 
-32.3659

>  <r_i_glide_energy>  (262) 
-22.4724

>  <r_i_glide_einternal>  (262) 
1.67016

>  <r_i_glide_intrahb_reward>  (262) 
-0.5

>  <i_i_glide_confnum>  (262) 
4

>  <i_i_glide_posenum>  (262) 
4

>  <r_i_glide_eff_state_penalty>  (262) 
0

>  <ligand_id>  (262) 
87

>  <original_smiles>  (262) 
C=C1C(O)C2(O)CCC1(CCOC(C)=O)C1(O)C3(C)C(O)CCC(C)C3CC(OC)C21O

>  <smiles>  (262) 
[H]OC1([H])C(=C([H])[H])C2(C([H])([H])C([H])([H])OC(=O)C([H])([H])[H])C([H])([H])C([H])([H])C1(O[H])C1(O[H])C([H])(OC([H])([H])[H])C([H])([H])C3([H])C([H])(C([H])([H])[H])C([H])([H])C([H])([H])C([H])(O[H])C3(C([H])([H])[H])C12O[H]

$$$$
87:0:2
     RDKit          3D

 70 73  0  0  1  0  0  0  0  0999 V2000
   -1.3102   -7.1601    4.6437 C   0  0  0  0  0  0  0  0  0  0  0  0
   -0.0494   -7.5832    4.4169 C   0  0  0  0  0  0  0  0  0  0  0  0
    0.2311   -8.9527    3.8151 C   0  0  1  0  0  0  0  0  0  0  0  0
   -0.7614   -9.3330    2.8848 O   0  0  0  0  0  0  0  0  0  0  0  0
    1.6986   -8.9795    3.3002 C   0  0  2  0  0  0  0  0  0  0  0  0
    1.9451  -10.2149    2.6515 O   0  0  0  0  0  0  0  0  0  0  0  0
    2.5454   -8.9521    4.6001 C   0  0  0  0  0  0  0  0  0  0  0  0
    2.2054   -7.6957    5.4235 C   0  0  0  0  0  0  0  0  0  0  0  0
    1.2410   -6.7455    4.6576 C   0  0  2  0  0  0  0  0  0  0  0  0
    0.9324   -5.5285    5.5813 C   0  0  0  0  0  0  0  0  0  0  0  0
    0.4225   -5.8460    7.0119 C   0  0  0  0  0  0  0  0  0  0  0  0
   -0.2477   -4.7146    7.5601 O   0  0  0  0  0  0  0  0  0  0  0  0
    0.3949   -3.6933    8.1537 C   0  0  0  0  0  0  0  0  0  0  0  0
    1.8955   -3.8251    8.3060 C   0  0  0  0  0  0  0  0  0  0  0  0
   -0.1762   -2.6697    8.5759 O   0  0  0  0  0  0  0  0  0  0  0  0
    1.8331   -6.3720    3.2010 C   0  0  1  0  0  0  0  0  0  0  0  0
    0.7127   -5.7158    2.6015 O   0  0  0  0  0  0  0  0  0  0  0  0
    2.9897   -5.2404    3.0370 C   0  0  1  0  0  0  0  0  0  0  0  0
    2.3932   -3.7897    3.2320 C   0  0  0  0  0  0  0  0  0  0  0  0
    4.2133   -5.3446    4.0277 C   0  0  1  0  0  0  0  0  0  0  0  0
    4.8282   -6.6099    4.0412 O   0  0  0  0  0  0  0  0  0  0  0  0
    5.3579   -4.3342    3.7637 C   0  0  0  0  0  0  0  0  0  0  0  0
    5.8154   -4.3052    2.2929 C   0  0  0  0  0  0  0  0  0  0  0  0
    4.6378   -4.1648    1.3056 C   0  0  1  0  0  0  0  0  0  0  0  0
    5.1471   -4.1148   -0.1500 C   0  0  0  0  0  0  0  0  0  0  0  0
    3.5469   -5.2578    1.5623 C   0  0  1  0  0  0  0  0  0  0  0  0
    4.0419   -6.6269    1.0478 C   0  0  0  0  0  0  0  0  0  0  0  0
    3.4178   -7.9202    1.6125 C   0  0  1  0  0  0  0  0  0  0  0  0
    4.3892   -8.6812    2.3138 O   0  0  0  0  0  0  0  0  0  0  0  0
    5.3992   -9.3071    1.5367 C   0  0  0  0  0  0  0  0  0  0  0  0
    2.0561   -7.7354    2.3722 C   0  0  1  0  0  0  0  0  0  0  0  0
    1.1423   -7.8122    1.2861 O   0  0  0  0  0  0  0  0  0  0  0  0
   -1.5237   -6.1983    5.0593 H   0  0  0  0  0  0  0  0  0  0  0  0
   -2.1524   -7.7991    4.4421 H   0  0  0  0  0  0  0  0  0  0  0  0
    0.1315   -9.6804    4.6320 H   0  0  0  0  0  0  0  0  0  0  0  0
   -1.3755   -9.8901    3.3484 H   0  0  0  0  0  0  0  0  0  0  0  0
    2.8695  -10.2480    2.4359 H   0  0  0  0  0  0  0  0  0  0  0  0
    2.3378   -9.8319    5.2046 H   0  0  0  0  0  0  0  0  0  0  0  0
    3.6155   -8.9909    4.4325 H   0  0  0  0  0  0  0  0  0  0  0  0
    1.7334   -8.0372    6.3476 H   0  0  0  0  0  0  0  0  0  0  0  0
    3.1071   -7.1860    5.7543 H   0  0  0  0  0  0  0  0  0  0  0  0
    1.8555   -4.9803    5.7299 H   0  0  0  0  0  0  0  0  0  0  0  0
    0.2351   -4.8614    5.0812 H   0  0  0  0  0  0  0  0  0  0  0  0
   -0.3004   -6.6781    6.9891 H   0  0  0  0  0  0  0  0  0  0  0  0
    1.2403   -6.1616    7.6591 H   0  0  0  0  0  0  0  0  0  0  0  0
    2.1475   -4.7373    8.8430 H   0  0  0  0  0  0  0  0  0  0  0  0
    2.3129   -2.9675    8.8636 H   0  0  0  0  0  0  0  0  0  0  0  0
    2.3785   -3.8419    7.3231 H   0  0  0  0  0  0  0  0  0  0  0  0
    0.6476   -4.8673    3.0139 H   0  0  0  0  0  0  0  0  0  0  0  0
    3.1431   -3.0057    3.3023 H   0  0  0  0  0  0  0  0  0  0  0  0
    1.8011   -3.6430    4.1268 H   0  0  0  0  0  0  0  0  0  0  0  0
    1.7650   -3.4795    2.3942 H   0  0  0  0  0  0  0  0  0  0  0  0
    3.8779   -5.1645    5.0448 H   0  0  0  0  0  0  0  0  0  0  0  0
    5.5085   -6.6140    4.6996 H   0  0  0  0  0  0  0  0  0  0  0  0
    5.0709   -3.3341    4.0662 H   0  0  0  0  0  0  0  0  0  0  0  0
    6.2096   -4.5736    4.4016 H   0  0  0  0  0  0  0  0  0  0  0  0
    6.5066   -3.4848    2.1388 H   0  0  0  0  0  0  0  0  0  0  0  0
    6.3999   -5.2092    2.0877 H   0  0  0  0  0  0  0  0  0  0  0  0
    4.2021   -3.1848    1.4619 H   0  0  0  0  0  0  0  0  0  0  0  0
    5.7265   -4.9968   -0.4184 H   0  0  0  0  0  0  0  0  0  0  0  0
    5.7914   -3.2467   -0.2959 H   0  0  0  0  0  0  0  0  0  0  0  0
    4.3157   -4.0256   -0.8553 H   0  0  0  0  0  0  0  0  0  0  0  0
    2.7006   -5.0106    0.9091 H   0  0  0  0  0  0  0  0  0  0  0  0
    3.9512   -6.6402   -0.0268 H   0  0  0  0  0  0  0  0  0  0  0  0
    5.1235   -6.6786    1.2422 H   0  0  0  0  0  0  0  0  0  0  0  0
    3.2157   -8.5665    0.7552 H   0  0  0  0  0  0  0  0  0  0  0  0
    6.0918   -9.8120    2.2149 H   0  0  0  0  0  0  0  0  0  0  0  0
    5.9843   -8.6062    0.9409 H   0  0  0  0  0  0  0  0  0  0  0  0
    4.9790  -10.0564    0.8678 H   0  0  0  0  0  0  0  0  0  0  0  0
    1.0078   -8.7386    1.0710 H   0  0  0  0  0  0  0  0  0  0  0  0
  1  2  2  0
  1 33  1  0
  1 34  1  0
  2  9  1  0
  2  3  1  0
  3  4  1  0
  3  5  1  0
  3 35  1  1
  4 36  1  0
  5 31  1  0
  5  6  1  6
  5  7  1  0
  6 37  1  0
  7  8  1  0
  7 38  1  0
  7 39  1  0
  8  9  1  0
  8 40  1  0
  8 41  1  0
  9 10  1  1
  9 16  1  0
 10 11  1  0
 10 42  1  0
 10 43  1  0
 11 12  1  0
 11 44  1  0
 11 45  1  0
 12 13  1  0
 13 14  1  0
 13 15  2  0
 14 46  1  0
 14 47  1  0
 14 48  1  0
 16 31  1  0
 16 17  1  6
 16 18  1  0
 17 49  1  0
 18 26  1  0
 18 19  1  1
 18 20  1  0
 19 50  1  0
 19 51  1  0
 19 52  1  0
 20 21  1  0
 20 22  1  0
 20 53  1  1
 21 54  1  0
 22 23  1  0
 22 55  1  0
 22 56  1  0
 23 24  1  0
 23 57  1  0
 23 58  1  0
 24 25  1  0
 24 26  1  0
 24 59  1  1
 25 60  1  0
 25 61  1  0
 25 62  1  0
 26 27  1  0
 26 63  1  6
 27 28  1  0
 27 64  1  0
 27 65  1  0
 28 29  1  0
 28 31  1  0
 28 66  1  6
 29 30  1  0
 30 67  1  0
 30 68  1  0
 30 69  1  0
 31 32  1  6
 32 70  1  0
M  END
>  <i_m_ct_stereo_status>  (263) 
1

>  <s_m_source_file>  (263) 
/var/tmp/pbs.5076255.sched01/tmppxy1xzy0/80exjuxwr6.sdf

>  <i_m_source_file_index>  (263) 
39

>  <i_lp_mmshare_version>  (263) 
48012

>  <i_f3d_flags>  (263) 
0

>  <s_epik_input>  (263) 
W0NIM11DKD1PKU9bQ0gyXVtDSDJdW0NAQF0oW0NIMl1bQ0gyXTEpKEMoPVtDSDJdKVtDQEhdMltPSF0pW0NAXShbT0hdKShbQ0BdMyhbT0hdKVtDQEBdMTJbT0hdKVtDQF00KFtDSDNdKVtDQEhdKFtDSDJdW0NASF0zT1tDSDNdKVtDQEhdKFtDSDNdKVtDSDJdW0NIMl1bQ0BASF00W09IXQ==

>  <s_epik_cmdline>  (263) 
J2VwaWtfcHl0aG9uJywgJy1waHQnLCAnMi4wJywgJy1waCcsICc3LjAnLCAnLXRuJywgJzgnLCAnLW1hJywgJzIwMCcsICctaW1hZScsICc8aW5maWxlLm1hZT4nLCAnLW9tYWUnLCAnPG91dGZpbGUubWFlPic=

>  <r_lp_tautomer_probability>  (263) 
1

>  <r_epik_Ionization_Penalty>  (263) 
1.52793e-06

>  <r_epik_Ionization_Penalty_Charging>  (263) 
0

>  <r_epik_Ionization_Penalty_Neutral>  (263) 
1.52793e-06

>  <r_epik_State_Penalty>  (263) 
-0

>  <r_epik_Charging_Adjusted_Penalty>  (263) 
0

>  <i_epik_Tot_Q>  (263) 
0

>  <i_epik_Tot_abs_Q>  (263) 
0

>  <s_epik_Chemistry_Notes>  (263) 
This compound has an ester and may undergo hydrolysis at high or low pH.

>  <s_lp_Force_Field>  (263) 
OPLS3e

>  <r_lp_Energy>  (263) 
93.8488

>  <b_lp_Chiralities_Consistent>  (263) 
1

>  <s_lp_Variant>  (263) 
87:0-1

>  <s_i_glide_gridfile>  (263) 
pfpi4k_grid

>  <i_i_glide_lignum>  (263) 
39

>  <i_i_glide_rotatable_bonds>  (263) 
10

>  <r_i_docking_score>  (263) 
-2.66497

>  <r_i_glide_ligand_efficiency>  (263) 
-0.0832802

>  <r_i_glide_ligand_efficiency_sa>  (263) 
-0.264398

>  <r_i_glide_ligand_efficiency_ln>  (263) 
-0.596759

>  <r_i_glide_gscore>  (263) 
-2.66497

>  <r_i_glide_lipo>  (263) 
-0.224532

>  <r_i_glide_hbond>  (263) 
-0.16

>  <r_i_glide_metal>  (263) 
-0

>  <r_i_glide_rewards>  (263) 
-0.309861

>  <r_i_glide_evdw>  (263) 
-19.9362

>  <r_i_glide_ecoul>  (263) 
-8.32165

>  <r_i_glide_erotb>  (263) 
0.291581

>  <r_i_glide_esite>  (263) 
-0.0170987

>  <r_i_glide_emodel>  (263) 
-29.1598

>  <r_i_glide_energy>  (263) 
-28.2578

>  <r_i_glide_einternal>  (263) 
8.60762

>  <r_i_glide_intrahb_reward>  (263) 
-0

>  <i_i_glide_confnum>  (263) 
5

>  <i_i_glide_posenum>  (263) 
20

>  <r_i_glide_eff_state_penalty>  (263) 
0

>  <ligand_id>  (263) 
87

>  <original_smiles>  (263) 
C=C1C(O)C2(O)CCC1(CCOC(C)=O)C1(O)C3(C)C(O)CCC(C)C3CC(OC)C21O

>  <smiles>  (263) 
[H]OC1([H])C(=C([H])[H])C2(C([H])([H])C([H])([H])OC(=O)C([H])([H])[H])C([H])([H])C([H])([H])C1(O[H])C1(O[H])C([H])(OC([H])([H])[H])C([H])([H])C3([H])C([H])(C([H])([H])[H])C([H])([H])C([H])([H])C([H])(O[H])C3(C([H])([H])[H])C12O[H]

$$$$
90:0:0
     RDKit          3D

 19 20  0  0  1  0  0  0  0  0999 V2000
   -0.4578   -9.4500    2.4497 C   0  0  0  0  0  0  0  0  0  0  0  0
   -0.1118   -8.8959    3.7540 N   0  0  0  0  0  0  0  0  0  0  0  0
    0.5786   -9.8480    4.6604 C   0  0  0  0  0  0  0  0  0  0  0  0
    0.5216   -9.5190    6.1734 C   0  0  0  0  0  0  0  0  0  0  0  0
    0.4051   -8.0540    6.3981 C   0  0  0  0  0  0  0  0  0  0  0  0
    0.6249   -7.4408    7.6292 N   0  0  0  0  0  0  0  0  0  0  0  0
    0.4356   -6.1204    7.5480 C   0  0  0  0  0  0  0  0  0  0  0  0
   -0.0623   -5.5412    5.9599 S   0  0  0  0  0  0  0  0  0  0  0  0
    0.0263   -7.1939    5.4083 C   0  0  0  0  0  0  0  0  0  0  0  0
   -0.3279   -7.5874    4.0414 C   0  0  0  0  0  0  0  0  0  0  0  0
   -0.8033   -6.7695    3.2512 O   0  0  0  0  0  0  0  0  0  0  0  0
   -0.9102   -8.7316    1.7599 H   0  0  0  0  0  0  0  0  0  0  0  0
   -1.1786  -10.2570    2.5704 H   0  0  0  0  0  0  0  0  0  0  0  0
    0.4371   -9.8543    1.9786 H   0  0  0  0  0  0  0  0  0  0  0  0
    0.2145  -10.8642    4.5073 H   0  0  0  0  0  0  0  0  0  0  0  0
    1.6244   -9.8696    4.3516 H   0  0  0  0  0  0  0  0  0  0  0  0
   -0.3387  -10.0194    6.6189 H   0  0  0  0  0  0  0  0  0  0  0  0
    1.4021   -9.9186    6.6827 H   0  0  0  0  0  0  0  0  0  0  0  0
    0.5739   -5.4913    8.4082 H   0  0  0  0  0  0  0  0  0  0  0  0
  1  2  1  0
  1 12  1  0
  1 13  1  0
  1 14  1  0
  2 10  1  0
  2  3  1  0
  3  4  1  0
  3 15  1  0
  3 16  1  0
  4  5  1  0
  4 17  1  0
  4 18  1  0
  5  9  2  0
  5  6  1  0
  6  7  2  0
  7  8  1  0
  7 19  1  0
  8  9  1  0
  9 10  1  0
 10 11  2  0
M  END
>  <i_m_ct_stereo_status>  (264) 
1

>  <s_m_source_file>  (264) 
/var/tmp/pbs.5076255.sched01/tmpnpseqx1a/1202b9de7rm.sdf

>  <i_m_source_file_index>  (264) 
2

>  <i_lp_mmshare_version>  (264) 
48012

>  <i_f3d_flags>  (264) 
0

>  <s_epik_input>  (264) 
W0NIMl0xW0NIMl1OKFtDSDNdKUMoPU8pYyhjMTIpc1tjSF1uMg==

>  <s_epik_cmdline>  (264) 
J2VwaWtfcHl0aG9uJywgJy1waHQnLCAnMi4wJywgJy1waCcsICc3LjAnLCAnLXRuJywgJzgnLCAnLW1hJywgJzIwMCcsICctaW1hZScsICc8aW5maWxlLm1hZT4nLCAnLW9tYWUnLCAnPG91dGZpbGUubWFlPic=

>  <r_lp_tautomer_probability>  (264) 
1

>  <r_epik_Ionization_Penalty>  (264) 
2.22373e-06

>  <r_epik_Ionization_Penalty_Charging>  (264) 
0

>  <r_epik_Ionization_Penalty_Neutral>  (264) 
2.22373e-06

>  <r_epik_State_Penalty>  (264) 
-0

>  <r_epik_Charging_Adjusted_Penalty>  (264) 
0

>  <i_epik_Tot_Q>  (264) 
0

>  <i_epik_Tot_abs_Q>  (264) 
0

>  <s_lp_Force_Field>  (264) 
OPLS3e

>  <r_lp_Energy>  (264) 
19.6177

>  <b_lp_Chiralities_Consistent>  (264) 
1

>  <s_lp_Variant>  (264) 
90:0-1

>  <s_i_glide_gridfile>  (264) 
pfpi4k_grid

>  <i_i_glide_lignum>  (264) 
2

>  <i_i_glide_rotatable_bonds>  (264) 
0

>  <r_i_docking_score>  (264) 
-3.8251

>  <r_i_glide_ligand_efficiency>  (264) 
-0.347736

>  <r_i_glide_ligand_efficiency_sa>  (264) 
-0.773359

>  <r_i_glide_ligand_efficiency_ln>  (264) 
-1.12573

>  <r_i_glide_gscore>  (264) 
-3.8251

>  <r_i_glide_lipo>  (264) 
-0.0810316

>  <r_i_glide_hbond>  (264) 
-0.157843

>  <r_i_glide_metal>  (264) 
-0

>  <r_i_glide_rewards>  (264) 
-2.25

>  <r_i_glide_evdw>  (264) 
-13.3954

>  <r_i_glide_ecoul>  (264) 
-3.81965

>  <r_i_glide_erotb>  (264) 
0

>  <r_i_glide_esite>  (264) 
-0.0935061

>  <r_i_glide_emodel>  (264) 
-22.2064

>  <r_i_glide_energy>  (264) 
-17.2151

>  <r_i_glide_einternal>  (264) 
0

>  <r_i_glide_intrahb_reward>  (264) 
-0

>  <i_i_glide_confnum>  (264) 
3

>  <i_i_glide_posenum>  (264) 
1

>  <r_i_glide_eff_state_penalty>  (264) 
0

>  <ligand_id>  (264) 
90

>  <original_smiles>  (264) 
CN1CCc2ncsc2C1=O

>  <smiles>  (264) 
[H]c1nc2c(s1)C(=O)N(C([H])([H])[H])C([H])([H])C2([H])[H]

$$$$
90:0:1
     RDKit          3D

 19 20  0  0  1  0  0  0  0  0999 V2000
   -2.6011    2.8997    5.1204 C   0  0  0  0  0  0  0  0  0  0  0  0
   -1.7250    1.8880    4.5214 N   0  0  0  0  0  0  0  0  0  0  0  0
   -1.2589    2.2196    3.1510 C   0  0  0  0  0  0  0  0  0  0  0  0
    0.0230    1.4933    2.6687 C   0  0  0  0  0  0  0  0  0  0  0  0
    0.1751    0.1687    3.3329 C   0  0  0  0  0  0  0  0  0  0  0  0
    1.0482   -0.8195    2.8898 N   0  0  0  0  0  0  0  0  0  0  0  0
    1.0158   -1.8827    3.6938 C   0  0  0  0  0  0  0  0  0  0  0  0
   -0.1029   -1.7517    5.0489 S   0  0  0  0  0  0  0  0  0  0  0  0
   -0.5168   -0.1608    4.4577 C   0  0  0  0  0  0  0  0  0  0  0  0
   -1.4688    0.7118    5.1530 C   0  0  0  0  0  0  0  0  0  0  0  0
   -1.9595    0.3742    6.2318 O   0  0  0  0  0  0  0  0  0  0  0  0
   -2.8739    2.6826    6.1569 H   0  0  0  0  0  0  0  0  0  0  0  0
   -3.5254    2.9722    4.5469 H   0  0  0  0  0  0  0  0  0  0  0  0
   -2.1175    3.8742    5.1137 H   0  0  0  0  0  0  0  0  0  0  0  0
   -2.0729    1.9691    2.4694 H   0  0  0  0  0  0  0  0  0  0  0  0
   -1.1128    3.2942    3.0363 H   0  0  0  0  0  0  0  0  0  0  0  0
    0.0156    1.3860    1.5811 H   0  0  0  0  0  0  0  0  0  0  0  0
    0.8935    2.1028    2.9076 H   0  0  0  0  0  0  0  0  0  0  0  0
    1.6418   -2.7405    3.4978 H   0  0  0  0  0  0  0  0  0  0  0  0
  1  2  1  0
  1 12  1  0
  1 13  1  0
  1 14  1  0
  2 10  1  0
  2  3  1  0
  3  4  1  0
  3 15  1  0
  3 16  1  0
  4  5  1  0
  4 17  1  0
  4 18  1  0
  5  9  2  0
  5  6  1  0
  6  7  2  0
  7  8  1  0
  7 19  1  0
  8  9  1  0
  9 10  1  0
 10 11  2  0
M  END
>  <i_m_ct_stereo_status>  (265) 
1

>  <s_m_source_file>  (265) 
/var/tmp/pbs.5076255.sched01/tmpnpseqx1a/1202b9de7rm.sdf

>  <i_m_source_file_index>  (265) 
2

>  <i_lp_mmshare_version>  (265) 
48012

>  <i_f3d_flags>  (265) 
0

>  <s_epik_input>  (265) 
W0NIMl0xW0NIMl1OKFtDSDNdKUMoPU8pYyhjMTIpc1tjSF1uMg==

>  <s_epik_cmdline>  (265) 
J2VwaWtfcHl0aG9uJywgJy1waHQnLCAnMi4wJywgJy1waCcsICc3LjAnLCAnLXRuJywgJzgnLCAnLW1hJywgJzIwMCcsICctaW1hZScsICc8aW5maWxlLm1hZT4nLCAnLW9tYWUnLCAnPG91dGZpbGUubWFlPic=

>  <r_lp_tautomer_probability>  (265) 
1

>  <r_epik_Ionization_Penalty>  (265) 
2.22373e-06

>  <r_epik_Ionization_Penalty_Charging>  (265) 
0

>  <r_epik_Ionization_Penalty_Neutral>  (265) 
2.22373e-06

>  <r_epik_State_Penalty>  (265) 
-0

>  <r_epik_Charging_Adjusted_Penalty>  (265) 
0

>  <i_epik_Tot_Q>  (265) 
0

>  <i_epik_Tot_abs_Q>  (265) 
0

>  <s_lp_Force_Field>  (265) 
OPLS3e

>  <r_lp_Energy>  (265) 
19.6177

>  <b_lp_Chiralities_Consistent>  (265) 
1

>  <s_lp_Variant>  (265) 
90:0-1

>  <s_i_glide_gridfile>  (265) 
pfpi4k_grid

>  <i_i_glide_lignum>  (265) 
2

>  <i_i_glide_rotatable_bonds>  (265) 
0

>  <r_i_docking_score>  (265) 
-3.68606

>  <r_i_glide_ligand_efficiency>  (265) 
-0.335096

>  <r_i_glide_ligand_efficiency_sa>  (265) 
-0.745248

>  <r_i_glide_ligand_efficiency_ln>  (265) 
-1.08481

>  <r_i_glide_gscore>  (265) 
-3.68606

>  <r_i_glide_lipo>  (265) 
-0.0159073

>  <r_i_glide_hbond>  (265) 
-0.16

>  <r_i_glide_metal>  (265) 
-0

>  <r_i_glide_rewards>  (265) 
-2.25

>  <r_i_glide_evdw>  (265) 
-14.8217

>  <r_i_glide_ecoul>  (265) 
-3.08637

>  <r_i_glide_erotb>  (265) 
0

>  <r_i_glide_esite>  (265) 
-0.0561148

>  <r_i_glide_emodel>  (265) 
-22.7063

>  <r_i_glide_energy>  (265) 
-17.9081

>  <r_i_glide_einternal>  (265) 
0

>  <r_i_glide_intrahb_reward>  (265) 
-0

>  <i_i_glide_confnum>  (265) 
2

>  <i_i_glide_posenum>  (265) 
11

>  <r_i_glide_eff_state_penalty>  (265) 
0

>  <ligand_id>  (265) 
90

>  <original_smiles>  (265) 
CN1CCc2ncsc2C1=O

>  <smiles>  (265) 
[H]c1nc2c(s1)C(=O)N(C([H])([H])[H])C([H])([H])C2([H])[H]

$$$$
90:0:2
     RDKit          3D

 19 20  0  0  1  0  0  0  0  0999 V2000
    3.5277   -3.7324    1.7877 C   0  0  0  0  0  0  0  0  0  0  0  0
    3.7397   -3.0420    0.5125 N   0  0  0  0  0  0  0  0  0  0  0  0
    4.8531   -2.0588    0.5285 C   0  0  0  0  0  0  0  0  0  0  0  0
    4.8100   -0.9620   -0.5643 C   0  0  0  0  0  0  0  0  0  0  0  0
    4.1242   -1.4518   -1.7900 C   0  0  0  0  0  0  0  0  0  0  0  0
    4.2096   -0.8114   -3.0250 N   0  0  0  0  0  0  0  0  0  0  0  0
    3.4508   -1.4329   -3.9315 C   0  0  0  0  0  0  0  0  0  0  0  0
    2.6164   -2.8671   -3.3443 S   0  0  0  0  0  0  0  0  0  0  0  0
    3.3290   -2.5541   -1.7841 C   0  0  0  0  0  0  0  0  0  0  0  0
    3.0266   -3.3635   -0.5960 C   0  0  0  0  0  0  0  0  0  0  0  0
    2.1685   -4.2499   -0.6259 O   0  0  0  0  0  0  0  0  0  0  0  0
    2.7383   -4.4912    1.7504 H   0  0  0  0  0  0  0  0  0  0  0  0
    3.2520   -3.0195    2.5624 H   0  0  0  0  0  0  0  0  0  0  0  0
    4.4420   -4.2326    2.1008 H   0  0  0  0  0  0  0  0  0  0  0  0
    4.9338   -1.5833    1.5063 H   0  0  0  0  0  0  0  0  0  0  0  0
    5.7710   -2.6343    0.4076 H   0  0  0  0  0  0  0  0  0  0  0  0
    4.2863   -0.0858   -0.1815 H   0  0  0  0  0  0  0  0  0  0  0  0
    5.8208   -0.6335   -0.8068 H   0  0  0  0  0  0  0  0  0  0  0  0
    3.3809   -1.0668   -4.9419 H   0  0  0  0  0  0  0  0  0  0  0  0
  1  2  1  0
  1 12  1  0
  1 13  1  0
  1 14  1  0
  2 10  1  0
  2  3  1  0
  3  4  1  0
  3 15  1  0
  3 16  1  0
  4  5  1  0
  4 17  1  0
  4 18  1  0
  5  9  2  0
  5  6  1  0
  6  7  2  0
  7  8  1  0
  7 19  1  0
  8  9  1  0
  9 10  1  0
 10 11  2  0
M  END
>  <i_m_ct_stereo_status>  (266) 
1

>  <s_m_source_file>  (266) 
/var/tmp/pbs.5076255.sched01/tmpnpseqx1a/1202b9de7rm.sdf

>  <i_m_source_file_index>  (266) 
2

>  <i_lp_mmshare_version>  (266) 
48012

>  <i_f3d_flags>  (266) 
0

>  <s_epik_input>  (266) 
W0NIMl0xW0NIMl1OKFtDSDNdKUMoPU8pYyhjMTIpc1tjSF1uMg==

>  <s_epik_cmdline>  (266) 
J2VwaWtfcHl0aG9uJywgJy1waHQnLCAnMi4wJywgJy1waCcsICc3LjAnLCAnLXRuJywgJzgnLCAnLW1hJywgJzIwMCcsICctaW1hZScsICc8aW5maWxlLm1hZT4nLCAnLW9tYWUnLCAnPG91dGZpbGUubWFlPic=

>  <r_lp_tautomer_probability>  (266) 
1

>  <r_epik_Ionization_Penalty>  (266) 
2.22373e-06

>  <r_epik_Ionization_Penalty_Charging>  (266) 
0

>  <r_epik_Ionization_Penalty_Neutral>  (266) 
2.22373e-06

>  <r_epik_State_Penalty>  (266) 
-0

>  <r_epik_Charging_Adjusted_Penalty>  (266) 
0

>  <i_epik_Tot_Q>  (266) 
0

>  <i_epik_Tot_abs_Q>  (266) 
0

>  <s_lp_Force_Field>  (266) 
OPLS3e

>  <r_lp_Energy>  (266) 
19.6177

>  <b_lp_Chiralities_Consistent>  (266) 
1

>  <s_lp_Variant>  (266) 
90:0-1

>  <s_i_glide_gridfile>  (266) 
pfpi4k_grid

>  <i_i_glide_lignum>  (266) 
2

>  <i_i_glide_rotatable_bonds>  (266) 
0

>  <r_i_docking_score>  (266) 
-3.50633

>  <r_i_glide_ligand_efficiency>  (266) 
-0.318757

>  <r_i_glide_ligand_efficiency_sa>  (266) 
-0.708909

>  <r_i_glide_ligand_efficiency_ln>  (266) 
-1.03191

>  <r_i_glide_gscore>  (266) 
-3.50633

>  <r_i_glide_lipo>  (266) 
-0.288741

>  <r_i_glide_hbond>  (266) 
0

>  <r_i_glide_metal>  (266) 
-0

>  <r_i_glide_rewards>  (266) 
-2.31811

>  <r_i_glide_evdw>  (266) 
-19.9773

>  <r_i_glide_ecoul>  (266) 
0.708111

>  <r_i_glide_erotb>  (266) 
0

>  <r_i_glide_esite>  (266) 
-0.00683034

>  <r_i_glide_emodel>  (266) 
-23.8416

>  <r_i_glide_energy>  (266) 
-19.2692

>  <r_i_glide_einternal>  (266) 
0

>  <r_i_glide_intrahb_reward>  (266) 
-0

>  <i_i_glide_confnum>  (266) 
1

>  <i_i_glide_posenum>  (266) 
3

>  <r_i_glide_eff_state_penalty>  (266) 
0

>  <ligand_id>  (266) 
90

>  <original_smiles>  (266) 
CN1CCc2ncsc2C1=O

>  <smiles>  (266) 
[H]c1nc2c(s1)C(=O)N(C([H])([H])[H])C([H])([H])C2([H])[H]

$$$$
91:0:0
     RDKit          3D

 90 97  0  0  1  0  0  0  0  0999 V2000
    5.7102   -2.4394   -1.7731 C   0  0  0  0  0  0  0  0  0  0  0  0
    4.9792   -2.3945   -0.4154 C   0  0  2  0  0  0  0  0  0  0  0  0
    5.4054   -1.1423    0.3454 C   0  0  0  0  0  0  0  0  0  0  0  0
    4.6248   -1.0300    1.6502 C   0  0  0  0  0  0  0  0  0  0  0  0
    4.9642   -2.2065    2.6120 C   0  0  1  0  0  0  0  0  0  0  0  0
    4.3530   -2.0302    4.0636 C   0  0  1  0  0  0  0  0  0  0  0  0
    5.0045   -3.0351    5.0592 C   0  0  0  0  0  0  0  0  0  0  0  0
    4.6798   -0.6396    4.6866 C   0  0  0  0  0  0  0  0  0  0  0  0
    5.6606    0.0148    4.3369 O   0  0  0  0  0  0  0  0  0  0  0  0
    3.8578   -0.1635    5.8945 C   0  0  0  0  0  0  0  0  0  0  0  0
    2.3416   -0.4340    5.7851 C   0  0  2  0  0  0  0  0  0  0  0  0
    2.0738   -1.8926    5.3196 C   0  0  1  0  0  0  0  0  0  0  0  0
    0.5590   -2.1843    5.3898 C   0  0  0  0  0  0  0  0  0  0  0  0
   -0.3063   -1.0666    4.8591 C   0  0  0  0  0  0  0  0  0  0  0  0
    0.0893    0.2095    4.7186 C   0  0  0  0  0  0  0  0  0  0  0  0
   -0.9133    1.2731    4.2887 C   0  0  0  0  0  0  0  0  0  0  0  0
   -1.0574    2.3696    5.3587 C   0  0  1  0  0  0  0  0  0  0  0  0
   -1.6561    1.7991    6.5268 O   0  0  0  0  0  0  0  0  0  0  0  0
   -2.0106    2.6868    7.5400 C   0  0  2  0  0  0  0  0  0  0  0  0
   -1.1602    2.3234    8.7800 C   0  0  0  0  0  0  0  0  0  0  0  0
   -1.5221    3.2469    9.9427 C   0  0  0  0  0  0  0  0  0  0  0  0
   -3.0294    3.1911   10.1886 C   0  0  0  0  0  0  0  0  0  0  0  0
   -3.7805    3.4619    8.8839 C   0  0  0  0  0  0  0  0  0  0  0  0
   -3.3520    2.5507    7.8661 O   0  0  0  0  0  0  0  0  0  0  0  0
    0.3320    2.9668    5.6720 C   0  0  0  0  0  0  0  0  0  0  0  0
    1.3442    1.8758    6.0889 C   0  0  0  0  0  0  0  0  0  0  0  0
    1.4962    0.7056    5.0789 C   0  0  1  0  0  0  0  0  0  0  0  0
    2.1832    1.2733    3.8071 C   0  0  0  0  0  0  0  0  0  0  0  0
    2.7971   -2.2219    3.9757 C   0  0  2  0  0  0  0  0  0  0  0  0
    2.4556   -3.6126    3.3907 C   0  0  0  0  0  0  0  0  0  0  0  0
    3.0769   -3.8581    1.9993 C   0  0  2  0  0  0  0  0  0  0  0  0
    2.7025   -5.1714    1.5872 O   0  0  0  0  0  0  0  0  0  0  0  0
    3.7410   -6.1298    1.7353 C   0  0  1  0  0  0  0  0  0  0  0  0
    3.0661   -7.4661    2.0798 C   0  0  0  0  0  0  0  0  0  0  0  0
    4.5239   -6.2212    0.4109 C   0  0  0  0  0  0  0  0  0  0  0  0
    4.6433   -4.8891   -0.3379 C   0  0  0  0  0  0  0  0  0  0  0  0
    5.1817   -3.6725    0.4458 C   0  0  2  0  0  0  0  0  0  0  0  0
    4.6129   -3.5763    1.9104 C   0  0  1  0  0  0  0  0  0  0  0  0
    5.3887   -4.5814    2.5691 O   0  0  0  0  0  0  0  0  0  0  0  0
    4.5621   -5.8287    2.8550 O   0  0  0  0  0  0  0  0  0  0  0  0
    6.7774   -2.6350   -1.6576 H   0  0  0  0  0  0  0  0  0  0  0  0
    5.5982   -1.4904   -2.2968 H   0  0  0  0  0  0  0  0  0  0  0  0
    5.2996   -3.2014   -2.4361 H   0  0  0  0  0  0  0  0  0  0  0  0
    3.9142   -2.2940   -0.6304 H   0  0  0  0  0  0  0  0  0  0  0  0
    6.4781   -1.1562    0.5502 H   0  0  0  0  0  0  0  0  0  0  0  0
    5.2061   -0.2577   -0.2633 H   0  0  0  0  0  0  0  0  0  0  0  0
    4.8654   -0.0564    2.0626 H   0  0  0  0  0  0  0  0  0  0  0  0
    3.5596   -0.9987    1.4147 H   0  0  0  0  0  0  0  0  0  0  0  0
    6.0493   -2.1858    2.7260 H   0  0  0  0  0  0  0  0  0  0  0  0
    4.6802   -4.0614    4.9269 H   0  0  0  0  0  0  0  0  0  0  0  0
    4.7945   -2.7866    6.0999 H   0  0  0  0  0  0  0  0  0  0  0  0
    6.0878   -3.0393    4.9684 H   0  0  0  0  0  0  0  0  0  0  0  0
    4.2473   -0.6816    6.7713 H   0  0  0  0  0  0  0  0  0  0  0  0
    4.0468    0.8963    6.0704 H   0  0  0  0  0  0  0  0  0  0  0  0
    1.9991   -0.4470    6.8210 H   0  0  0  0  0  0  0  0  0  0  0  0
    2.5130   -2.5512    6.0671 H   0  0  0  0  0  0  0  0  0  0  0  0
    0.2810   -3.1218    4.9090 H   0  0  0  0  0  0  0  0  0  0  0  0
    0.2794   -2.3025    6.4400 H   0  0  0  0  0  0  0  0  0  0  0  0
   -1.3262   -1.3372    4.6484 H   0  0  0  0  0  0  0  0  0  0  0  0
   -0.5705    1.7164    3.3522 H   0  0  0  0  0  0  0  0  0  0  0  0
   -1.8839    0.8269    4.0678 H   0  0  0  0  0  0  0  0  0  0  0  0
   -1.7223    3.1456    4.9751 H   0  0  0  0  0  0  0  0  0  0  0  0
   -1.8617    3.7219    7.2377 H   0  0  0  0  0  0  0  0  0  0  0  0
   -1.3200    1.2784    9.0338 H   0  0  0  0  0  0  0  0  0  0  0  0
   -0.1047    2.4600    8.5614 H   0  0  0  0  0  0  0  0  0  0  0  0
   -0.9842    2.9486   10.8456 H   0  0  0  0  0  0  0  0  0  0  0  0
   -1.2142    4.2696    9.7102 H   0  0  0  0  0  0  0  0  0  0  0  0
   -3.2985    2.2077   10.5781 H   0  0  0  0  0  0  0  0  0  0  0  0
   -3.3056    3.9178   10.9548 H   0  0  0  0  0  0  0  0  0  0  0  0
   -4.8541    3.3461    9.0356 H   0  0  0  0  0  0  0  0  0  0  0  0
   -3.6138    4.4925    8.5543 H   0  0  0  0  0  0  0  0  0  0  0  0
    0.6919    3.5131    4.8011 H   0  0  0  0  0  0  0  0  0  0  0  0
    0.2643    3.7156    6.4636 H   0  0  0  0  0  0  0  0  0  0  0  0
    2.3052    2.3472    6.2912 H   0  0  0  0  0  0  0  0  0  0  0  0
    1.0152    1.4579    7.0355 H   0  0  0  0  0  0  0  0  0  0  0  0
    3.1788    1.6642    4.0158 H   0  0  0  0  0  0  0  0  0  0  0  0
    1.6313    2.1081    3.3763 H   0  0  0  0  0  0  0  0  0  0  0  0
    2.2657    0.5418    3.0091 H   0  0  0  0  0  0  0  0  0  0  0  0
    2.3959   -1.5215    3.2520 H   0  0  0  0  0  0  0  0  0  0  0  0
    2.7325   -4.4090    4.0833 H   0  0  0  0  0  0  0  0  0  0  0  0
    1.3819   -3.7121    3.2449 H   0  0  0  0  0  0  0  0  0  0  0  0
    2.5819   -3.1788    1.3010 H   0  0  0  0  0  0  0  0  0  0  0  0
    2.5620   -7.3897    3.0455 H   0  0  0  0  0  0  0  0  0  0  0  0
    3.7969   -8.2746    2.1449 H   0  0  0  0  0  0  0  0  0  0  0  0
    2.3184   -7.7485    1.3336 H   0  0  0  0  0  0  0  0  0  0  0  0
    5.4924   -6.6930    0.5568 H   0  0  0  0  0  0  0  0  0  0  0  0
    3.9836   -6.8839   -0.2680 H   0  0  0  0  0  0  0  0  0  0  0  0
    5.2713   -5.0636   -1.2082 H   0  0  0  0  0  0  0  0  0  0  0  0
    3.6627   -4.6414   -0.7461 H   0  0  0  0  0  0  0  0  0  0  0  0
    6.2602   -3.8128    0.5496 H   0  0  0  0  0  0  0  0  0  0  0  0
  1  2  1  0
  1 41  1  0
  1 42  1  0
  1 43  1  0
  2 37  1  0
  2  3  1  0
  2 44  1  6
  3  4  1  0
  3 45  1  0
  3 46  1  0
  4  5  1  0
  4 47  1  0
  4 48  1  0
  5 38  1  0
  5  6  1  0
  5 49  1  1
  6 29  1  0
  6  7  1  1
  6  8  1  0
  7 50  1  0
  7 51  1  0
  7 52  1  0
  8  9  2  0
  8 10  1  0
 10 11  1  0
 10 53  1  0
 10 54  1  0
 11 27  1  0
 11 12  1  0
 11 55  1  1
 12 13  1  0
 12 29  1  0
 12 56  1  1
 13 14  1  0
 13 57  1  0
 13 58  1  0
 14 15  2  0
 14 59  1  0
 15 27  1  0
 15 16  1  0
 16 17  1  0
 16 60  1  0
 16 61  1  0
 17 18  1  0
 17 25  1  0
 17 62  1  6
 18 19  1  0
 19 24  1  0
 19 20  1  0
 19 63  1  6
 20 21  1  0
 20 64  1  0
 20 65  1  0
 21 22  1  0
 21 66  1  0
 21 67  1  0
 22 23  1  0
 22 68  1  0
 22 69  1  0
 23 24  1  0
 23 70  1  0
 23 71  1  0
 25 26  1  0
 25 72  1  0
 25 73  1  0
 26 27  1  0
 26 74  1  0
 26 75  1  0
 27 28  1  6
 28 76  1  0
 28 77  1  0
 28 78  1  0
 29 30  1  0
 29 79  1  6
 30 31  1  0
 30 80  1  0
 30 81  1  0
 31 38  1  0
 31 32  1  0
 31 82  1  6
 32 33  1  0
 33 40  1  0
 33 34  1  1
 33 35  1  0
 34 83  1  0
 34 84  1  0
 34 85  1  0
 35 36  1  0
 35 86  1  0
 35 87  1  0
 36 37  1  0
 36 88  1  0
 36 89  1  0
 37 38  1  0
 37 90  1  1
 38 39  1  1
 39 40  1  0
M  END
>  <i_m_ct_stereo_status>  (267) 
1

>  <s_m_source_file>  (267) 
/var/tmp/pbs.5076255.sched01/tmpnpseqx1a/1202b9de7rm.sdf

>  <i_m_source_file_index>  (267) 
3

>  <i_lp_mmshare_version>  (267) 
48012

>  <i_f3d_flags>  (267) 
0

>  <s_epik_input>  (267) 
W0NIMl0xW0NIMl1bQ0BASF0oW0NIM10pW0NAQEhdMltDSDJdW0NIMl1bQ0BAXShbQ0gzXSkoT08zKU9bQ0BIXTRbQ0gyXVtDQEhdKFtDQF01KFtDQEhdMVtDQEBdMjM0KVtDSDNdKVtDQEhdNltDQEBIXShbQ0gyXUM1PU8pW0NAQF03KFtDSDNdKUMoPVtDSF1bQ0gyXTYpW0NIMl1bQ0BIXShbQ0gyXVtDSDJdNylPW0NAQEhdOFtDSDJdW0NIMl1bQ0gyXVtDSDJdTzg=

>  <s_epik_cmdline>  (267) 
J2VwaWtfcHl0aG9uJywgJy1waHQnLCAnMi4wJywgJy1waCcsICc3LjAnLCAnLXRuJywgJzgnLCAnLW1hJywgJzIwMCcsICctaW1hZScsICc8aW5maWxlLm1hZT4nLCAnLW9tYWUnLCAnPG91dGZpbGUubWFlPic=

>  <r_lp_tautomer_probability>  (267) 
1

>  <r_epik_Ionization_Penalty>  (267) 
1.62724e-12

>  <r_epik_Ionization_Penalty_Charging>  (267) 
0

>  <r_epik_Ionization_Penalty_Neutral>  (267) 
1.62724e-12

>  <r_epik_State_Penalty>  (267) 
-0

>  <r_epik_Charging_Adjusted_Penalty>  (267) 
0

>  <i_epik_Tot_Q>  (267) 
0

>  <i_epik_Tot_abs_Q>  (267) 
0

>  <s_epik_Chemistry_Notes>  (267) 
This compound contains an acetal/aminal-like group ( X-CH(R)-Y where X, Y are N, S, or O) that may be acid/base labile, releasing an aldehyde.

>  <s_lp_Force_Field>  (267) 
OPLS3e

>  <r_lp_Energy>  (267) 
64.6392

>  <b_lp_Chiralities_Consistent>  (267) 
1

>  <s_lp_Variant>  (267) 
91:0-1

>  <s_i_glide_gridfile>  (267) 
pfpi4k_grid

>  <i_i_glide_lignum>  (267) 
3

>  <i_i_glide_rotatable_bonds>  (267) 
2

>  <r_i_docking_score>  (267) 
-2.99795

>  <r_i_glide_ligand_efficiency>  (267) 
-0.0749488

>  <r_i_glide_ligand_efficiency_sa>  (267) 
-0.256321

>  <r_i_glide_ligand_efficiency_ln>  (267) 
-0.639375

>  <r_i_glide_gscore>  (267) 
-2.99795

>  <r_i_glide_lipo>  (267) 
-0.546647

>  <r_i_glide_hbond>  (267) 
0

>  <r_i_glide_metal>  (267) 
-0

>  <r_i_glide_rewards>  (267) 
-0.151734

>  <r_i_glide_evdw>  (267) 
-39.155

>  <r_i_glide_ecoul>  (267) 
-2.68572

>  <r_i_glide_erotb>  (267) 
0.0610327

>  <r_i_glide_esite>  (267) 
0

>  <r_i_glide_emodel>  (267) 
-46.9666

>  <r_i_glide_energy>  (267) 
-41.8407

>  <r_i_glide_einternal>  (267) 
4.80909

>  <r_i_glide_intrahb_reward>  (267) 
-0

>  <i_i_glide_confnum>  (267) 
3

>  <i_i_glide_posenum>  (267) 
9

>  <r_i_glide_eff_state_penalty>  (267) 
0

>  <ligand_id>  (267) 
91

>  <original_smiles>  (267) 
CC1CCC2C3(C)C(=O)CC4C(CC=C5CC(OC6CCCCO6)CCC54C)C3CC3OC4(C)CCC1C32OO4

>  <smiles>  (267) 
[H]C1=C2C([H])([H])C([H])(OC3([H])OC([H])([H])C([H])([H])C([H])([H])C3([H])[H])C([H])([H])C([H])([H])C2(C([H])([H])[H])C2([H])C([H])([H])C(=O)C3(C([H])([H])[H])C([H])(C([H])([H])C4([H])OC5(C([H])([H])[H])OOC46C([H])(C([H])([H])C5([H])[H])C([H])(C([H])([H])[H])C([H])([H])C([H])([H])C63[H])C2([H])C1([H])[H]

$$$$
91:0:1
     RDKit          3D

 90 97  0  0  1  0  0  0  0  0999 V2000
   -2.2120    4.2034    3.0347 C   0  0  0  0  0  0  0  0  0  0  0  0
   -1.0223    3.3252    3.4362 C   0  0  2  0  0  0  0  0  0  0  0  0
   -1.5405    1.9825    3.9308 C   0  0  0  0  0  0  0  0  0  0  0  0
   -0.3778    1.0527    4.2282 C   0  0  0  0  0  0  0  0  0  0  0  0
    0.4849    1.5977    5.3991 C   0  0  1  0  0  0  0  0  0  0  0  0
    1.5865    0.5718    5.8903 C   0  0  1  0  0  0  0  0  0  0  0  0
    2.1565    1.0128    7.2694 C   0  0  0  0  0  0  0  0  0  0  0  0
    0.9825   -0.8462    6.1877 C   0  0  0  0  0  0  0  0  0  0  0  0
   -0.1729   -0.9954    6.5115 O   0  0  0  0  0  0  0  0  0  0  0  0
    1.9673   -2.0375    6.2944 C   0  0  0  0  0  0  0  0  0  0  0  0
    3.0859   -2.0576    5.2388 C   0  0  2  0  0  0  0  0  0  0  0  0
    3.7442   -0.6558    5.1121 C   0  0  1  0  0  0  0  0  0  0  0  0
    4.9576   -0.7495    4.1658 C   0  0  0  0  0  0  0  0  0  0  0  0
    4.7001   -1.5633    2.9156 C   0  0  0  0  0  0  0  0  0  0  0  0
    3.7194   -2.4527    2.7745 C   0  0  0  0  0  0  0  0  0  0  0  0
    3.5876   -3.2850    1.5025 C   0  0  0  0  0  0  0  0  0  0  0  0
    3.8099   -4.7825    1.8109 C   0  0  1  0  0  0  0  0  0  0  0  0
    5.1281   -5.1005    2.2703 O   0  0  0  0  0  0  0  0  0  0  0  0
    6.1494   -4.9974    1.3153 C   0  0  2  0  0  0  0  0  0  0  0  0
    7.4183   -5.6473    1.8784 C   0  0  0  0  0  0  0  0  0  0  0  0
    8.5451   -5.5155    0.8361 C   0  0  0  0  0  0  0  0  0  0  0  0
    8.7062   -4.0547    0.3781 C   0  0  0  0  0  0  0  0  0  0  0  0
    7.3586   -3.4860   -0.0403 C   0  0  0  0  0  0  0  0  0  0  0  0
    6.4715   -3.6647    1.0515 O   0  0  0  0  0  0  0  0  0  0  0  0
    2.7713   -5.2124    2.8682 C   0  0  0  0  0  0  0  0  0  0  0  0
    2.8106   -4.3386    4.1442 C   0  0  0  0  0  0  0  0  0  0  0  0
    2.7223   -2.8018    3.8893 C   0  0  1  0  0  0  0  0  0  0  0  0
    1.2963   -2.4692    3.3893 C   0  0  0  0  0  0  0  0  0  0  0  0
    2.6980    0.4616    4.7994 C   0  0  2  0  0  0  0  0  0  0  0  0
    3.3144    1.8527    4.5224 C   0  0  0  0  0  0  0  0  0  0  0  0
    2.2763    2.9119    4.0949 C   0  0  2  0  0  0  0  0  0  0  0  0
    2.9665    4.1419    3.8826 O   0  0  0  0  0  0  0  0  0  0  0  0
    2.8101    5.0615    4.9543 C   0  0  1  0  0  0  0  0  0  0  0  0
    4.1158    5.8553    5.0470 C   0  0  0  0  0  0  0  0  0  0  0  0
    1.6203    5.9960    4.6358 C   0  0  0  0  0  0  0  0  0  0  0  0
    0.4712    5.3119    3.8909 C   0  0  0  0  0  0  0  0  0  0  0  0
   -0.0797    3.9900    4.4782 C   0  0  2  0  0  0  0  0  0  0  0  0
    1.0355    3.0322    5.0397 C   0  0  1  0  0  0  0  0  0  0  0  0
    1.3491    3.6894    6.2696 O   0  0  0  0  0  0  0  0  0  0  0  0
    2.6869    4.3727    6.1965 O   0  0  0  0  0  0  0  0  0  0  0  0
   -2.7591    4.5028    3.9188 H   0  0  0  0  0  0  0  0  0  0  0  0
   -2.9024    3.6687    2.3829 H   0  0  0  0  0  0  0  0  0  0  0  0
   -1.9060    5.0971    2.4913 H   0  0  0  0  0  0  0  0  0  0  0  0
   -0.4618    3.1271    2.5236 H   0  0  0  0  0  0  0  0  0  0  0  0
   -2.1702    2.1013    4.8144 H   0  0  0  0  0  0  0  0  0  0  0  0
   -2.1596    1.5352    3.1506 H   0  0  0  0  0  0  0  0  0  0  0  0
   -0.8104    0.0764    4.4277 H   0  0  0  0  0  0  0  0  0  0  0  0
    0.2102    0.9492    3.3173 H   0  0  0  0  0  0  0  0  0  0  0  0
   -0.2004    1.7394    6.2295 H   0  0  0  0  0  0  0  0  0  0  0  0
    2.8206    1.8716    7.2152 H   0  0  0  0  0  0  0  0  0  0  0  0
    2.7281    0.2201    7.7537 H   0  0  0  0  0  0  0  0  0  0  0  0
    1.3618    1.2709    7.9656 H   0  0  0  0  0  0  0  0  0  0  0  0
    2.4162   -1.9844    7.2853 H   0  0  0  0  0  0  0  0  0  0  0  0
    1.4013   -2.9728    6.2822 H   0  0  0  0  0  0  0  0  0  0  0  0
    3.8768   -2.6601    5.6889 H   0  0  0  0  0  0  0  0  0  0  0  0
    4.1719   -0.4080    6.0871 H   0  0  0  0  0  0  0  0  0  0  0  0
    5.3651    0.2177    3.8860 H   0  0  0  0  0  0  0  0  0  0  0  0
    5.7638   -1.2569    4.6939 H   0  0  0  0  0  0  0  0  0  0  0  0
    5.4336   -1.4287    2.1331 H   0  0  0  0  0  0  0  0  0  0  0  0
    2.5989   -3.1453    1.0789 H   0  0  0  0  0  0  0  0  0  0  0  0
    4.2314   -2.8935    0.7217 H   0  0  0  0  0  0  0  0  0  0  0  0
    3.6097   -5.3911    0.9288 H   0  0  0  0  0  0  0  0  0  0  0  0
    5.8380   -5.4984    0.3949 H   0  0  0  0  0  0  0  0  0  0  0  0
    7.6845   -5.1420    2.8031 H   0  0  0  0  0  0  0  0  0  0  0  0
    7.2187   -6.6949    2.1155 H   0  0  0  0  0  0  0  0  0  0  0  0
    9.4828   -5.8760    1.2558 H   0  0  0  0  0  0  0  0  0  0  0  0
    8.3208   -6.1476   -0.0265 H   0  0  0  0  0  0  0  0  0  0  0  0
    9.1003   -3.4604    1.1994 H   0  0  0  0  0  0  0  0  0  0  0  0
    9.4068   -3.9682   -0.4525 H   0  0  0  0  0  0  0  0  0  0  0  0
    7.4456   -2.4246   -0.2724 H   0  0  0  0  0  0  0  0  0  0  0  0
    6.9623   -3.9587   -0.9372 H   0  0  0  0  0  0  0  0  0  0  0  0
    1.7744   -5.1673    2.4325 H   0  0  0  0  0  0  0  0  0  0  0  0
    2.9166   -6.2589    3.1416 H   0  0  0  0  0  0  0  0  0  0  0  0
    2.0161   -4.6533    4.8250 H   0  0  0  0  0  0  0  0  0  0  0  0
    3.7446   -4.5806    4.6534 H   0  0  0  0  0  0  0  0  0  0  0  0
    0.5252   -2.7059    4.1191 H   0  0  0  0  0  0  0  0  0  0  0  0
    1.0344   -3.0424    2.5063 H   0  0  0  0  0  0  0  0  0  0  0  0
    1.1850   -1.4332    3.0893 H   0  0  0  0  0  0  0  0  0  0  0  0
    2.2443    0.1819    3.8548 H   0  0  0  0  0  0  0  0  0  0  0  0
    3.8904    2.2102    5.3732 H   0  0  0  0  0  0  0  0  0  0  0  0
    4.0173    1.7966    3.6963 H   0  0  0  0  0  0  0  0  0  0  0  0
    1.9083    2.6265    3.1120 H   0  0  0  0  0  0  0  0  0  0  0  0
    4.9304    5.1887    5.3171 H   0  0  0  0  0  0  0  0  0  0  0  0
    4.0535    6.6334    5.8062 H   0  0  0  0  0  0  0  0  0  0  0  0
    4.3750    6.3281    4.0968 H   0  0  0  0  0  0  0  0  0  0  0  0
    1.2751    6.5069    5.5324 H   0  0  0  0  0  0  0  0  0  0  0  0
    1.9671    6.7883    3.9645 H   0  0  0  0  0  0  0  0  0  0  0  0
   -0.3266    6.0386    3.7788 H   0  0  0  0  0  0  0  0  0  0  0  0
    0.8122    5.1182    2.8784 H   0  0  0  0  0  0  0  0  0  0  0  0
   -0.6951    4.2583    5.3384 H   0  0  0  0  0  0  0  0  0  0  0  0
  1  2  1  0
  1 41  1  0
  1 42  1  0
  1 43  1  0
  2 37  1  0
  2  3  1  0
  2 44  1  6
  3  4  1  0
  3 45  1  0
  3 46  1  0
  4  5  1  0
  4 47  1  0
  4 48  1  0
  5 38  1  0
  5  6  1  0
  5 49  1  1
  6 29  1  0
  6  7  1  1
  6  8  1  0
  7 50  1  0
  7 51  1  0
  7 52  1  0
  8  9  2  0
  8 10  1  0
 10 11  1  0
 10 53  1  0
 10 54  1  0
 11 27  1  0
 11 12  1  0
 11 55  1  1
 12 13  1  0
 12 29  1  0
 12 56  1  1
 13 14  1  0
 13 57  1  0
 13 58  1  0
 14 15  2  0
 14 59  1  0
 15 27  1  0
 15 16  1  0
 16 17  1  0
 16 60  1  0
 16 61  1  0
 17 18  1  0
 17 25  1  0
 17 62  1  6
 18 19  1  0
 19 24  1  0
 19 20  1  0
 19 63  1  6
 20 21  1  0
 20 64  1  0
 20 65  1  0
 21 22  1  0
 21 66  1  0
 21 67  1  0
 22 23  1  0
 22 68  1  0
 22 69  1  0
 23 24  1  0
 23 70  1  0
 23 71  1  0
 25 26  1  0
 25 72  1  0
 25 73  1  0
 26 27  1  0
 26 74  1  0
 26 75  1  0
 27 28  1  6
 28 76  1  0
 28 77  1  0
 28 78  1  0
 29 30  1  0
 29 79  1  6
 30 31  1  0
 30 80  1  0
 30 81  1  0
 31 38  1  0
 31 32  1  0
 31 82  1  6
 32 33  1  0
 33 40  1  0
 33 34  1  1
 33 35  1  0
 34 83  1  0
 34 84  1  0
 34 85  1  0
 35 36  1  0
 35 86  1  0
 35 87  1  0
 36 37  1  0
 36 88  1  0
 36 89  1  0
 37 38  1  0
 37 90  1  1
 38 39  1  1
 39 40  1  0
M  END
>  <i_m_ct_stereo_status>  (268) 
1

>  <s_m_source_file>  (268) 
/var/tmp/pbs.5076255.sched01/tmpnpseqx1a/1202b9de7rm.sdf

>  <i_m_source_file_index>  (268) 
3

>  <i_lp_mmshare_version>  (268) 
48012

>  <i_f3d_flags>  (268) 
0

>  <s_epik_input>  (268) 
W0NIMl0xW0NIMl1bQ0BASF0oW0NIM10pW0NAQEhdMltDSDJdW0NIMl1bQ0BAXShbQ0gzXSkoT08zKU9bQ0BIXTRbQ0gyXVtDQEhdKFtDQF01KFtDQEhdMVtDQEBdMjM0KVtDSDNdKVtDQEhdNltDQEBIXShbQ0gyXUM1PU8pW0NAQF03KFtDSDNdKUMoPVtDSF1bQ0gyXTYpW0NIMl1bQ0BIXShbQ0gyXVtDSDJdNylPW0NAQEhdOFtDSDJdW0NIMl1bQ0gyXVtDSDJdTzg=

>  <s_epik_cmdline>  (268) 
J2VwaWtfcHl0aG9uJywgJy1waHQnLCAnMi4wJywgJy1waCcsICc3LjAnLCAnLXRuJywgJzgnLCAnLW1hJywgJzIwMCcsICctaW1hZScsICc8aW5maWxlLm1hZT4nLCAnLW9tYWUnLCAnPG91dGZpbGUubWFlPic=

>  <r_lp_tautomer_probability>  (268) 
1

>  <r_epik_Ionization_Penalty>  (268) 
1.62724e-12

>  <r_epik_Ionization_Penalty_Charging>  (268) 
0

>  <r_epik_Ionization_Penalty_Neutral>  (268) 
1.62724e-12

>  <r_epik_State_Penalty>  (268) 
-0

>  <r_epik_Charging_Adjusted_Penalty>  (268) 
0

>  <i_epik_Tot_Q>  (268) 
0

>  <i_epik_Tot_abs_Q>  (268) 
0

>  <s_epik_Chemistry_Notes>  (268) 
This compound contains an acetal/aminal-like group ( X-CH(R)-Y where X, Y are N, S, or O) that may be acid/base labile, releasing an aldehyde.

>  <s_lp_Force_Field>  (268) 
OPLS3e

>  <r_lp_Energy>  (268) 
64.6392

>  <b_lp_Chiralities_Consistent>  (268) 
1

>  <s_lp_Variant>  (268) 
91:0-1

>  <s_i_glide_gridfile>  (268) 
pfpi4k_grid

>  <i_i_glide_lignum>  (268) 
3

>  <i_i_glide_rotatable_bonds>  (268) 
2

>  <r_i_docking_score>  (268) 
-2.3415

>  <r_i_glide_ligand_efficiency>  (268) 
-0.0585374

>  <r_i_glide_ligand_efficiency_sa>  (268) 
-0.200195

>  <r_i_glide_ligand_efficiency_ln>  (268) 
-0.499372

>  <r_i_glide_gscore>  (268) 
-2.3415

>  <r_i_glide_lipo>  (268) 
-0.442998

>  <r_i_glide_hbond>  (268) 
0

>  <r_i_glide_metal>  (268) 
-0

>  <r_i_glide_rewards>  (268) 
-0.113414

>  <r_i_glide_evdw>  (268) 
-32.2888

>  <r_i_glide_ecoul>  (268) 
-1.49349

>  <r_i_glide_erotb>  (268) 
0.0610327

>  <r_i_glide_esite>  (268) 
-0.00765473

>  <r_i_glide_emodel>  (268) 
-37.2704

>  <r_i_glide_energy>  (268) 
-33.7823

>  <r_i_glide_einternal>  (268) 
4.03891

>  <r_i_glide_intrahb_reward>  (268) 
-0

>  <i_i_glide_confnum>  (268) 
3

>  <i_i_glide_posenum>  (268) 
1

>  <r_i_glide_eff_state_penalty>  (268) 
0

>  <ligand_id>  (268) 
91

>  <original_smiles>  (268) 
CC1CCC2C3(C)C(=O)CC4C(CC=C5CC(OC6CCCCO6)CCC54C)C3CC3OC4(C)CCC1C32OO4

>  <smiles>  (268) 
[H]C1=C2C([H])([H])C([H])(OC3([H])OC([H])([H])C([H])([H])C([H])([H])C3([H])[H])C([H])([H])C([H])([H])C2(C([H])([H])[H])C2([H])C([H])([H])C(=O)C3(C([H])([H])[H])C([H])(C([H])([H])C4([H])OC5(C([H])([H])[H])OOC46C([H])(C([H])([H])C5([H])[H])C([H])(C([H])([H])[H])C([H])([H])C([H])([H])C63[H])C2([H])C1([H])[H]

$$$$
91:0:2
     RDKit          3D

 90 97  0  0  1  0  0  0  0  0999 V2000
    4.8146   -8.4958    1.5080 C   0  0  0  0  0  0  0  0  0  0  0  0
    4.0769   -7.3931    2.2931 C   0  0  2  0  0  0  0  0  0  0  0  0
    5.0869   -6.5902    3.1103 C   0  0  0  0  0  0  0  0  0  0  0  0
    4.4004   -5.4422    3.8241 C   0  0  0  0  0  0  0  0  0  0  0  0
    3.3837   -5.9640    4.8812 C   0  0  1  0  0  0  0  0  0  0  0  0
    2.7904   -4.8227    5.8036 C   0  0  1  0  0  0  0  0  0  0  0  0
    2.0722   -5.4420    7.0390 C   0  0  0  0  0  0  0  0  0  0  0  0
    3.8948   -3.9310    6.4495 C   0  0  0  0  0  0  0  0  0  0  0  0
    5.0387   -4.3395    6.6091 O   0  0  0  0  0  0  0  0  0  0  0  0
    3.4964   -2.5654    7.0402 C   0  0  0  0  0  0  0  0  0  0  0  0
    2.4925   -1.7688    6.1985 C   0  0  2  0  0  0  0  0  0  0  0  0
    1.3256   -2.6942    5.7502 C   0  0  1  0  0  0  0  0  0  0  0  0
    0.2777   -1.8518    5.0193 C   0  0  0  0  0  0  0  0  0  0  0  0
    0.8651   -0.9131    3.9965 C   0  0  0  0  0  0  0  0  0  0  0  0
    2.1205   -0.4134    4.0401 C   0  0  0  0  0  0  0  0  0  0  0  0
    2.5607    0.7011    3.0891 C   0  0  0  0  0  0  0  0  0  0  0  0
    2.9305    1.9816    3.8969 C   0  0  1  0  0  0  0  0  0  0  0  0
    1.8349    2.6166    4.5718 O   0  0  0  0  0  0  0  0  0  0  0  0
    0.6970    2.8734    3.7955 C   0  0  2  0  0  0  0  0  0  0  0  0
   -0.2509    3.8181    4.5867 C   0  0  0  0  0  0  0  0  0  0  0  0
   -1.5243    4.0271    3.7411 C   0  0  0  0  0  0  0  0  0  0  0  0
   -2.1457    2.6949    3.2882 C   0  0  0  0  0  0  0  0  0  0  0  0
   -1.0425    1.8377    2.6354 C   0  0  0  0  0  0  0  0  0  0  0  0
    0.0300    1.6557    3.5482 O   0  0  0  0  0  0  0  0  0  0  0  0
    4.0582    1.6184    4.8834 C   0  0  0  0  0  0  0  0  0  0  0  0
    3.6736    0.4598    5.8218 C   0  0  0  0  0  0  0  0  0  0  0  0
    3.1487   -0.8281    5.1049 C   0  0  1  0  0  0  0  0  0  0  0  0
    4.3286   -1.4826    4.3431 C   0  0  0  0  0  0  0  0  0  0  0  0
    1.8274   -3.9388    4.9607 C   0  0  2  0  0  0  0  0  0  0  0  0
    0.7143   -4.8147    4.3540 C   0  0  0  0  0  0  0  0  0  0  0  0
    1.2259   -5.9791    3.4801 C   0  0  2  0  0  0  0  0  0  0  0  0
    0.0829   -6.6821    2.9815 O   0  0  0  0  0  0  0  0  0  0  0  0
   -0.1654   -7.8878    3.6967 C   0  0  1  0  0  0  0  0  0  0  0  0
   -1.6718   -8.1036    3.6919 C   0  0  0  0  0  0  0  0  0  0  0  0
    0.5562   -9.0448    2.9529 C   0  0  0  0  0  0  0  0  0  0  0  0
    1.8920   -8.6564    2.2976 C   0  0  0  0  0  0  0  0  0  0  0  0
    2.9277   -7.9309    3.1959 C   0  0  2  0  0  0  0  0  0  0  0  0
    2.3050   -6.8733    4.1823 C   0  0  1  0  0  0  0  0  0  0  0  0
    1.7095   -7.7505    5.1416 O   0  0  0  0  0  0  0  0  0  0  0  0
    0.2368   -7.7154    5.0593 O   0  0  0  0  0  0  0  0  0  0  0  0
    5.2062   -9.2715    2.1650 H   0  0  0  0  0  0  0  0  0  0  0  0
    5.6563   -8.0770    0.9604 H   0  0  0  0  0  0  0  0  0  0  0  0
    4.1757   -8.9752    0.7683 H   0  0  0  0  0  0  0  0  0  0  0  0
    3.6423   -6.7139    1.5572 H   0  0  0  0  0  0  0  0  0  0  0  0
    5.5951   -7.2282    3.8329 H   0  0  0  0  0  0  0  0  0  0  0  0
    5.8514   -6.1851    2.4465 H   0  0  0  0  0  0  0  0  0  0  0  0
    5.1862   -4.8363    4.2641 H   0  0  0  0  0  0  0  0  0  0  0  0
    3.9099   -4.8197    3.0800 H   0  0  0  0  0  0  0  0  0  0  0  0
    3.9404   -6.6310    5.5292 H   0  0  0  0  0  0  0  0  0  0  0  0
    1.1165   -5.9081    6.8114 H   0  0  0  0  0  0  0  0  0  0  0  0
    1.8724   -4.6993    7.8113 H   0  0  0  0  0  0  0  0  0  0  0  0
    2.6894   -6.2004    7.5170 H   0  0  0  0  0  0  0  0  0  0  0  0
    3.0557   -2.7653    8.0118 H   0  0  0  0  0  0  0  0  0  0  0  0
    4.3910   -1.9728    7.2383 H   0  0  0  0  0  0  0  0  0  0  0  0
    2.0098   -1.0861    6.9015 H   0  0  0  0  0  0  0  0  0  0  0  0
    0.8230   -3.0678    6.6511 H   0  0  0  0  0  0  0  0  0  0  0  0
   -0.5002   -2.4295    4.5369 H   0  0  0  0  0  0  0  0  0  0  0  0
   -0.2411   -1.2349    5.7488 H   0  0  0  0  0  0  0  0  0  0  0  0
    0.1703   -0.5282    3.2647 H   0  0  0  0  0  0  0  0  0  0  0  0
    3.4371    0.3640    2.5238 H   0  0  0  0  0  0  0  0  0  0  0  0
    1.7700    0.9003    2.3587 H   0  0  0  0  0  0  0  0  0  0  0  0
    3.3283    2.7407    3.2295 H   0  0  0  0  0  0  0  0  0  0  0  0
    0.9982    3.3700    2.8535 H   0  0  0  0  0  0  0  0  0  0  0  0
   -0.4670    3.3195    5.5257 H   0  0  0  0  0  0  0  0  0  0  0  0
    0.2655    4.7712    4.8193 H   0  0  0  0  0  0  0  0  0  0  0  0
   -2.2633    4.5830    4.2997 H   0  0  0  0  0  0  0  0  0  0  0  0
   -1.2617    4.5907    2.8446 H   0  0  0  0  0  0  0  0  0  0  0  0
   -2.5240    2.1353    4.1412 H   0  0  0  0  0  0  0  0  0  0  0  0
   -2.9989    2.8288    2.6040 H   0  0  0  0  0  0  0  0  0  0  0  0
   -1.4450    0.8548    2.4125 H   0  0  0  0  0  0  0  0  0  0  0  0
   -0.6903    2.2435    1.6733 H   0  0  0  0  0  0  0  0  0  0  0  0
    4.9531    1.3471    4.3250 H   0  0  0  0  0  0  0  0  0  0  0  0
    4.3499    2.4872    5.4678 H   0  0  0  0  0  0  0  0  0  0  0  0
    4.5244    0.2066    6.4568 H   0  0  0  0  0  0  0  0  0  0  0  0
    2.9135    0.8567    6.4952 H   0  0  0  0  0  0  0  0  0  0  0  0
    5.1188   -1.8226    5.0067 H   0  0  0  0  0  0  0  0  0  0  0  0
    4.8032   -0.7934    3.6506 H   0  0  0  0  0  0  0  0  0  0  0  0
    3.9975   -2.3115    3.7290 H   0  0  0  0  0  0  0  0  0  0  0  0
    2.3657   -3.5546    4.0988 H   0  0  0  0  0  0  0  0  0  0  0  0
    0.0156   -5.1650    5.1131 H   0  0  0  0  0  0  0  0  0  0  0  0
    0.1609   -4.1805    3.6805 H   0  0  0  0  0  0  0  0  0  0  0  0
    1.6819   -5.5392    2.6040 H   0  0  0  0  0  0  0  0  0  0  0  0
   -2.1413   -7.3169    4.2629 H   0  0  0  0  0  0  0  0  0  0  0  0
   -1.9233   -9.0525    4.1547 H   0  0  0  0  0  0  0  0  0  0  0  0
   -2.0943   -8.1015    2.6848 H   0  0  0  0  0  0  0  0  0  0  0  0
    0.6639   -9.9201    3.5963 H   0  0  0  0  0  0  0  0  0  0  0  0
   -0.0775   -9.3858    2.1258 H   0  0  0  0  0  0  0  0  0  0  0  0
    2.3345   -9.5635    1.8909 H   0  0  0  0  0  0  0  0  0  0  0  0
    1.6778   -8.0324    1.4277 H   0  0  0  0  0  0  0  0  0  0  0  0
    3.3677   -8.6899    3.8431 H   0  0  0  0  0  0  0  0  0  0  0  0
  1  2  1  0
  1 41  1  0
  1 42  1  0
  1 43  1  0
  2 37  1  0
  2  3  1  0
  2 44  1  6
  3  4  1  0
  3 45  1  0
  3 46  1  0
  4  5  1  0
  4 47  1  0
  4 48  1  0
  5 38  1  0
  5  6  1  0
  5 49  1  1
  6 29  1  0
  6  7  1  1
  6  8  1  0
  7 50  1  0
  7 51  1  0
  7 52  1  0
  8  9  2  0
  8 10  1  0
 10 11  1  0
 10 53  1  0
 10 54  1  0
 11 27  1  0
 11 12  1  0
 11 55  1  1
 12 13  1  0
 12 29  1  0
 12 56  1  1
 13 14  1  0
 13 57  1  0
 13 58  1  0
 14 15  2  0
 14 59  1  0
 15 27  1  0
 15 16  1  0
 16 17  1  0
 16 60  1  0
 16 61  1  0
 17 18  1  0
 17 25  1  0
 17 62  1  6
 18 19  1  0
 19 24  1  0
 19 20  1  0
 19 63  1  6
 20 21  1  0
 20 64  1  0
 20 65  1  0
 21 22  1  0
 21 66  1  0
 21 67  1  0
 22 23  1  0
 22 68  1  0
 22 69  1  0
 23 24  1  0
 23 70  1  0
 23 71  1  0
 25 26  1  0
 25 72  1  0
 25 73  1  0
 26 27  1  0
 26 74  1  0
 26 75  1  0
 27 28  1  6
 28 76  1  0
 28 77  1  0
 28 78  1  0
 29 30  1  0
 29 79  1  6
 30 31  1  0
 30 80  1  0
 30 81  1  0
 31 38  1  0
 31 32  1  0
 31 82  1  6
 32 33  1  0
 33 40  1  0
 33 34  1  1
 33 35  1  0
 34 83  1  0
 34 84  1  0
 34 85  1  0
 35 36  1  0
 35 86  1  0
 35 87  1  0
 36 37  1  0
 36 88  1  0
 36 89  1  0
 37 38  1  0
 37 90  1  1
 38 39  1  1
 39 40  1  0
M  END
>  <i_m_ct_stereo_status>  (269) 
1

>  <s_m_source_file>  (269) 
/var/tmp/pbs.5076255.sched01/tmpnpseqx1a/1202b9de7rm.sdf

>  <i_m_source_file_index>  (269) 
3

>  <i_lp_mmshare_version>  (269) 
48012

>  <i_f3d_flags>  (269) 
0

>  <s_epik_input>  (269) 
W0NIMl0xW0NIMl1bQ0BASF0oW0NIM10pW0NAQEhdMltDSDJdW0NIMl1bQ0BAXShbQ0gzXSkoT08zKU9bQ0BIXTRbQ0gyXVtDQEhdKFtDQF01KFtDQEhdMVtDQEBdMjM0KVtDSDNdKVtDQEhdNltDQEBIXShbQ0gyXUM1PU8pW0NAQF03KFtDSDNdKUMoPVtDSF1bQ0gyXTYpW0NIMl1bQ0BIXShbQ0gyXVtDSDJdNylPW0NAQEhdOFtDSDJdW0NIMl1bQ0gyXVtDSDJdTzg=

>  <s_epik_cmdline>  (269) 
J2VwaWtfcHl0aG9uJywgJy1waHQnLCAnMi4wJywgJy1waCcsICc3LjAnLCAnLXRuJywgJzgnLCAnLW1hJywgJzIwMCcsICctaW1hZScsICc8aW5maWxlLm1hZT4nLCAnLW9tYWUnLCAnPG91dGZpbGUubWFlPic=

>  <r_lp_tautomer_probability>  (269) 
1

>  <r_epik_Ionization_Penalty>  (269) 
1.62724e-12

>  <r_epik_Ionization_Penalty_Charging>  (269) 
0

>  <r_epik_Ionization_Penalty_Neutral>  (269) 
1.62724e-12

>  <r_epik_State_Penalty>  (269) 
-0

>  <r_epik_Charging_Adjusted_Penalty>  (269) 
0

>  <i_epik_Tot_Q>  (269) 
0

>  <i_epik_Tot_abs_Q>  (269) 
0

>  <s_epik_Chemistry_Notes>  (269) 
This compound contains an acetal/aminal-like group ( X-CH(R)-Y where X, Y are N, S, or O) that may be acid/base labile, releasing an aldehyde.

>  <s_lp_Force_Field>  (269) 
OPLS3e

>  <r_lp_Energy>  (269) 
64.6392

>  <b_lp_Chiralities_Consistent>  (269) 
1

>  <s_lp_Variant>  (269) 
91:0-1

>  <s_i_glide_gridfile>  (269) 
pfpi4k_grid

>  <i_i_glide_lignum>  (269) 
3

>  <i_i_glide_rotatable_bonds>  (269) 
2

>  <r_i_docking_score>  (269) 
-2.28572

>  <r_i_glide_ligand_efficiency>  (269) 
-0.0571431

>  <r_i_glide_ligand_efficiency_sa>  (269) 
-0.195427

>  <r_i_glide_ligand_efficiency_ln>  (269) 
-0.487478

>  <r_i_glide_gscore>  (269) 
-2.28572

>  <r_i_glide_lipo>  (269) 
-0.0196451

>  <r_i_glide_hbond>  (269) 
-0.0804901

>  <r_i_glide_metal>  (269) 
-0

>  <r_i_glide_rewards>  (269) 
0

>  <r_i_glide_evdw>  (269) 
-34.0387

>  <r_i_glide_ecoul>  (269) 
-3.02478

>  <r_i_glide_erotb>  (269) 
0.0610327

>  <r_i_glide_esite>  (269) 
-0.0909687

>  <r_i_glide_emodel>  (269) 
-36.9928

>  <r_i_glide_energy>  (269) 
-37.0635

>  <r_i_glide_einternal>  (269) 
8.90745

>  <r_i_glide_intrahb_reward>  (269) 
-0

>  <i_i_glide_confnum>  (269) 
3

>  <i_i_glide_posenum>  (269) 
39

>  <r_i_glide_eff_state_penalty>  (269) 
0

>  <ligand_id>  (269) 
91

>  <original_smiles>  (269) 
CC1CCC2C3(C)C(=O)CC4C(CC=C5CC(OC6CCCCO6)CCC54C)C3CC3OC4(C)CCC1C32OO4

>  <smiles>  (269) 
[H]C1=C2C([H])([H])C([H])(OC3([H])OC([H])([H])C([H])([H])C([H])([H])C3([H])[H])C([H])([H])C([H])([H])C2(C([H])([H])[H])C2([H])C([H])([H])C(=O)C3(C([H])([H])[H])C([H])(C([H])([H])C4([H])OC5(C([H])([H])[H])OOC46C([H])(C([H])([H])C5([H])[H])C([H])(C([H])([H])[H])C([H])([H])C([H])([H])C63[H])C2([H])C1([H])[H]

$$$$
92:1:0
     RDKit          3D

 71 78  0  0  1  0  0  0  0  0999 V2000
    6.1191    0.4997    4.0992 C   0  0  0  0  0  0  0  0  0  0  0  0
    6.1528   -0.6562    3.2724 O   0  0  0  0  0  0  0  0  0  0  0  0
    5.2680   -1.7098    3.6320 C   0  0  2  0  0  0  0  0  0  0  0  0
    5.8232   -3.2892    3.5226 C   0  0  1  0  0  0  0  0  0  0  0  0
    6.1454   -4.6589    2.6143 C   0  0  2  0  0  0  0  0  0  0  0  0
    6.4675   -4.4501    1.1560 C   0  0  0  0  0  0  0  0  0  0  0  0
    5.8010   -3.5371    0.4607 C   0  0  0  0  0  0  0  0  0  0  0  0
    4.9160   -2.5510    1.1951 C   0  0  1  0  0  0  0  0  0  0  0  0
    5.6870   -1.2477    0.7469 C   0  0  0  0  0  0  0  0  0  0  0  0
    3.5068   -2.3821    0.7374 C   0  0  1  0  0  0  0  0  0  0  0  0
    2.7954   -3.7826    0.5848 C   0  0  0  0  0  0  0  0  0  0  0  0
    3.2934   -5.0607    0.5730 C   0  0  0  0  0  0  0  0  0  0  0  0
    3.6846   -5.8529    1.8518 C   0  0  1  0  0  0  0  0  0  0  0  0
    4.7790   -6.7856    1.6734 O   0  0  0  0  0  0  0  0  0  0  0  0
    5.0575   -5.8427    2.7069 C   0  0  1  0  0  0  0  0  0  0  0  0
    2.4959   -6.1168    2.8360 C   0  0  0  0  0  0  0  0  0  0  0  0
    1.8261   -5.1707    3.5562 C   0  0  0  0  0  0  0  0  0  0  0  0
    0.7918   -5.6336    4.5271 C   0  0  0  0  0  0  0  0  0  0  0  0
    0.1986   -4.8986    5.2945 O   0  0  0  0  0  0  0  0  0  0  0  0
    0.4657   -7.1348    4.6001 C   0  0  0  0  0  0  0  0  0  0  0  0
    0.7371   -7.8655    3.2780 C   0  0  0  0  0  0  0  0  0  0  0  0
   -0.2462   -7.3874    2.1885 C   0  0  0  0  0  0  0  0  0  0  0  0
   -1.4767   -8.2763    2.3622 C   0  0  0  0  0  0  0  0  0  0  0  0
   -0.8944   -9.6429    2.6985 C   0  0  0  0  0  0  0  0  0  0  0  0
    0.4192   -9.3628    3.4446 C   0  0  0  0  0  0  0  0  0  0  0  0
    2.2026   -7.6198    2.9264 C   0  0  0  0  0  0  0  0  0  0  0  0
    1.9825   -3.6411    3.4700 C   0  0  0  0  0  0  0  0  0  0  0  0
    0.9772   -2.9626    3.3480 O   0  0  0  0  0  0  0  0  0  0  0  0
    3.3615   -2.8858    3.7388 C   0  0  2  0  0  0  0  0  0  0  0  0
    3.4702   -3.1868    5.2944 C   0  0  0  0  0  0  0  0  0  0  0  0
    3.6304   -1.4842    3.3329 C   0  0  2  0  0  0  0  0  0  0  0  0
    2.9660   -1.3091    1.8388 C   0  0  1  0  0  0  0  0  0  0  0  0
    3.1240    0.0671    1.4602 O   0  0  0  0  0  0  0  0  0  0  0  0
    2.1102    0.9515    1.9286 C   0  0  0  0  0  0  0  0  0  0  0  0
    4.6090   -3.0998    2.7576 C   0  0  2  0  0  0  0  0  0  0  0  0
    6.8227    1.2097    3.6948 H   0  0  0  0  0  0  0  0  0  0  0  0
    6.4479    0.2728    5.1105 H   0  0  0  0  0  0  0  0  0  0  0  0
    5.1278    0.9422    4.1297 H   0  0  0  0  0  0  0  0  0  0  0  0
    5.3635   -1.5431    4.7014 H   0  0  0  0  0  0  0  0  0  0  0  0
    5.7207   -3.7085    4.5195 H   0  0  0  0  0  0  0  0  0  0  0  0
    7.0528   -5.0813    3.0500 H   0  0  0  0  0  0  0  0  0  0  0  0
    7.1674   -5.1216    0.6807 H   0  0  0  0  0  0  0  0  0  0  0  0
    6.0170   -3.4103   -0.5937 H   0  0  0  0  0  0  0  0  0  0  0  0
    5.3269   -0.3083    1.1409 H   0  0  0  0  0  0  0  0  0  0  0  0
    5.6364   -1.1206   -0.3389 H   0  0  0  0  0  0  0  0  0  0  0  0
    6.7445   -1.3075    0.9978 H   0  0  0  0  0  0  0  0  0  0  0  0
    3.4259   -1.9227   -0.2521 H   0  0  0  0  0  0  0  0  0  0  0  0
    1.7870   -3.7020    0.9037 H   0  0  0  0  0  0  0  0  0  0  0  0
    2.5669   -5.7703    0.6091 H   0  0  0  0  0  0  0  0  0  0  0  0
    5.0413   -6.3114    3.7054 H   0  0  0  0  0  0  0  0  0  0  0  0
    1.0921   -7.5612    5.3797 H   0  0  0  0  0  0  0  0  0  0  0  0
   -0.5678   -7.2754    4.9319 H   0  0  0  0  0  0  0  0  0  0  0  0
   -0.5038   -6.3297    2.2582 H   0  0  0  0  0  0  0  0  0  0  0  0
    0.1787   -7.5508    1.2006 H   0  0  0  0  0  0  0  0  0  0  0  0
   -2.0938   -7.9168    3.1885 H   0  0  0  0  0  0  0  0  0  0  0  0
   -2.1057   -8.3157    1.4789 H   0  0  0  0  0  0  0  0  0  0  0  0
   -1.5903  -10.2430    3.2634 H   0  0  0  0  0  0  0  0  0  0  0  0
   -0.6959  -10.1967    1.7786 H   0  0  0  0  0  0  0  0  0  0  0  0
    1.2059   -9.9943    3.0362 H   0  0  0  0  0  0  0  0  0  0  0  0
    0.3124   -9.6418    4.4950 H   0  0  0  0  0  0  0  0  0  0  0  0
    2.4680   -8.1221    1.9940 H   0  0  0  0  0  0  0  0  0  0  0  0
    2.8509   -8.0241    3.7013 H   0  0  0  0  0  0  0  0  0  0  0  0
    4.2201   -2.6533    5.8651 H   0  0  0  0  0  0  0  0  0  0  0  0
    3.6631   -4.2495    5.4809 H   0  0  0  0  0  0  0  0  0  0  0  0
    2.5381   -2.9414    5.8161 H   0  0  0  0  0  0  0  0  0  0  0  0
    3.1839   -0.7805    4.0315 H   0  0  0  0  0  0  0  0  0  0  0  0
    1.8776   -1.4115    1.8470 H   0  0  0  0  0  0  0  0  0  0  0  0
    2.4080    1.9788    1.7330 H   0  0  0  0  0  0  0  0  0  0  0  0
    1.9306    0.8598    2.9984 H   0  0  0  0  0  0  0  0  0  0  0  0
    1.1728    0.7755    1.4031 H   0  0  0  0  0  0  0  0  0  0  0  0
    4.0887   -3.9223    2.6108 H   0  0  0  0  0  0  0  0  0  0  0  0
  1  2  1  0
  1 36  1  0
  1 37  1  0
  1 38  1  0
  2  3  1  0
  3 31  1  0
  3  4  1  0
  3 39  1  1
  4 35  1  0
  4  5  1  0
  4 40  1  1
  5 15  1  0
  5  6  1  0
  5 41  1  1
  6  7  2  0
  6 42  1  0
  7  8  1  0
  7 43  1  0
  8 35  1  0
  8  9  1  1
  8 10  1  0
  9 44  1  0
  9 45  1  0
  9 46  1  0
 10 32  1  0
 10 11  1  0
 10 47  1  6
 11 12  2  3
 11 48  1  0
 12 13  1  0
 12 49  1  0
 13 15  1  0
 13 14  1  6
 13 16  1  0
 14 15  1  0
 15 50  1  1
 16 26  1  0
 16 17  2  0
 17 18  1  0
 17 27  1  0
 18 19  2  0
 18 20  1  0
 20 21  1  0
 20 51  1  0
 20 52  1  0
 21 25  1  0
 21 22  1  0
 21 26  1  0
 22 23  1  0
 22 53  1  0
 22 54  1  0
 23 24  1  0
 23 55  1  0
 23 56  1  0
 24 25  1  0
 24 57  1  0
 24 58  1  0
 25 59  1  0
 25 60  1  0
 26 61  1  0
 26 62  1  0
 27 28  2  0
 27 29  1  0
 29 30  1  1
 29 31  1  0
 29 35  1  0
 30 63  1  0
 30 64  1  0
 30 65  1  0
 31 32  1  0
 31 66  1  1
 32 33  1  0
 32 67  1  1
 33 34  1  0
 34 68  1  0
 34 69  1  0
 34 70  1  0
 35 71  1  6
M  END
>  <i_m_ct_stereo_status>  (270) 
1

>  <s_m_source_file>  (270) 
/var/tmp/pbs.5076255.sched01/tmpnpseqx1a/1202b9de7rm.sdf

>  <i_m_source_file_index>  (270) 
5

>  <i_lp_mmshare_version>  (270) 
48012

>  <i_f3d_flags>  (270) 
0

>  <s_epik_input>  (270) 
W0NAXTEyM1tDQEBIXShPMilbQ0BASF00W0NAQEhdNVtDQEBIXTZbQ0BAXShbQ0gzXSkoW0NIXT1bQ0hdNClbQ0BASF0oL1tDSF09W0NIXVwxKVtDQEhdKE9bQ0gzXSlbQ0BIXShbQ0BASF01T1tDSDNdKVtDQEBdNihbQ0gzXSlDKD1PKUM3PUMzW0NIMl1DOChbQ0gyXUM3PU8pW0NIMl1bQ0gyXVtDSDJdW0NIMl04

>  <s_epik_cmdline>  (270) 
J2VwaWtfcHl0aG9uJywgJy1waHQnLCAnMi4wJywgJy1waCcsICc3LjAnLCAnLXRuJywgJzgnLCAnLW1hJywgJzIwMCcsICctaW1hZScsICc8aW5maWxlLm1hZT4nLCAnLW9tYWUnLCAnPG91dGZpbGUubWFlPic=

>  <r_lp_tautomer_probability>  (270) 
1

>  <r_epik_Ionization_Penalty>  (270) 
5.82843e-12

>  <r_epik_Ionization_Penalty_Charging>  (270) 
0

>  <r_epik_Ionization_Penalty_Neutral>  (270) 
5.82843e-12

>  <r_epik_State_Penalty>  (270) 
-0

>  <r_epik_Charging_Adjusted_Penalty>  (270) 
0

>  <i_epik_Tot_Q>  (270) 
0

>  <i_epik_Tot_abs_Q>  (270) 
0

>  <s_lp_Force_Field>  (270) 
OPLS3e

>  <r_lp_Energy>  (270) 
386.227

>  <b_lp_Chiralities_Consistent>  (270) 
1

>  <s_lp_Variant>  (270) 
92:0-2

>  <s_i_glide_gridfile>  (270) 
pfpi4k_grid

>  <i_i_glide_lignum>  (270) 
5

>  <i_i_glide_rotatable_bonds>  (270) 
2

>  <r_i_docking_score>  (270) 
1.31185

>  <r_i_glide_ligand_efficiency>  (270) 
0.0374813

>  <r_i_glide_ligand_efficiency_sa>  (270) 
0.122604

>  <r_i_glide_ligand_efficiency_ln>  (270) 
0.287979

>  <r_i_glide_gscore>  (270) 
1.31185

>  <r_i_glide_lipo>  (270) 
-0.659616

>  <r_i_glide_hbond>  (270) 
0

>  <r_i_glide_metal>  (270) 
-0

>  <r_i_glide_rewards>  (270) 
-0.167459

>  <r_i_glide_evdw>  (270) 
-19.3769

>  <r_i_glide_ecoul>  (270) 
2.3498

>  <r_i_glide_erotb>  (270) 
0

>  <r_i_glide_esite>  (270) 
-0.0103754

>  <r_i_glide_emodel>  (270) 
-1.69842

>  <r_i_glide_energy>  (270) 
-17.0271

>  <r_i_glide_einternal>  (270) 
4.00969

>  <r_i_glide_intrahb_reward>  (270) 
-0

>  <i_i_glide_confnum>  (270) 
3

>  <i_i_glide_posenum>  (270) 
16

>  <r_i_glide_eff_state_penalty>  (270) 
0

>  <ligand_id>  (270) 
92

>  <original_smiles>  (270) 
COC1C2C3C=CC4(C)C5C=CC6(OC36)C3=C(C(=O)CC6(CCCC6)C3)C(=O)C(C)(C1C5OC)C24

>  <smiles>  (270) 
[H]C1=C([H])C2([H])C([H])(OC([H])([H])[H])C3([H])C([H])(OC([H])([H])[H])C4([H])C5([H])C([H])=C([H])C2(C([H])([H])[H])C4([H])C3(C([H])([H])[H])C(=O)C2=C(C([H])([H])C3(C([H])([H])C2=O)C([H])([H])C([H])([H])C([H])([H])C3([H])[H])C12OC25[H]

$$$$
92:1:1
     RDKit          3D

 71 78  0  0  1  0  0  0  0  0999 V2000
    9.7942   -6.3436    3.7114 C   0  0  0  0  0  0  0  0  0  0  0  0
    8.7889   -5.4875    3.1900 O   0  0  0  0  0  0  0  0  0  0  0  0
    7.4656   -5.7301    3.6426 C   0  0  2  0  0  0  0  0  0  0  0  0
    7.0427   -7.2740    4.0952 C   0  0  1  0  0  0  0  0  0  0  0  0
    6.5718   -8.8213    3.6803 C   0  0  2  0  0  0  0  0  0  0  0  0
    6.9926   -9.3213    2.3269 C   0  0  0  0  0  0  0  0  0  0  0  0
    6.9784   -8.5060    1.2824 C   0  0  0  0  0  0  0  0  0  0  0  0
    6.7699   -7.0164    1.5005 C   0  0  1  0  0  0  0  0  0  0  0  0
    8.1468   -6.5420    0.8784 C   0  0  0  0  0  0  0  0  0  0  0  0
    5.7019   -6.3014    0.7302 C   0  0  1  0  0  0  0  0  0  0  0  0
    4.3215   -7.0714    0.8160 C   0  0  0  0  0  0  0  0  0  0  0  0
    4.0510   -8.3390    1.2477 C   0  0  0  0  0  0  0  0  0  0  0  0
    3.8921   -8.7413    2.7372 C   0  0  1  0  0  0  0  0  0  0  0  0
    4.2803  -10.0995    3.0524 O   0  0  0  0  0  0  0  0  0  0  0  0
    5.0053   -9.1532    3.8372 C   0  0  1  0  0  0  0  0  0  0  0  0
    2.7333   -7.9996    3.4719 C   0  0  0  0  0  0  0  0  0  0  0  0
    2.6813   -6.6544    3.7519 C   0  0  0  0  0  0  0  0  0  0  0  0
    1.5399   -6.1531    4.5637 C   0  0  0  0  0  0  0  0  0  0  0  0
    1.4324   -5.0013    4.9621 O   0  0  0  0  0  0  0  0  0  0  0  0
    0.4291   -7.1311    4.9664 C   0  0  0  0  0  0  0  0  0  0  0  0
    0.2951   -8.2859    3.9718 C   0  0  0  0  0  0  0  0  0  0  0  0
   -0.2227   -7.7852    2.6083 C   0  0  0  0  0  0  0  0  0  0  0  0
   -1.7448   -7.7989    2.7343 C   0  0  0  0  0  0  0  0  0  0  0  0
   -2.0246   -9.0398    3.5483 C   0  0  0  0  0  0  0  0  0  0  0  0
   -0.7991   -9.2170    4.4567 C   0  0  0  0  0  0  0  0  0  0  0  0
    1.6506   -8.9847    3.8979 C   0  0  0  0  0  0  0  0  0  0  0  0
    3.6655   -5.5767    3.2935 C   0  0  0  0  0  0  0  0  0  0  0  0
    3.2088   -4.5698    2.7653 O   0  0  0  0  0  0  0  0  0  0  0  0
    5.2196   -5.6091    3.6463 C   0  0  2  0  0  0  0  0  0  0  0  0
    5.1035   -5.3600    5.2076 C   0  0  0  0  0  0  0  0  0  0  0  0
    6.2393   -4.7986    2.9494 C   0  0  2  0  0  0  0  0  0  0  0  0
    5.8342   -4.8117    1.3594 C   0  0  1  0  0  0  0  0  0  0  0  0
    6.7449   -3.9399    0.6712 O   0  0  0  0  0  0  0  0  0  0  0  0
    6.4949   -2.5444    0.8259 C   0  0  0  0  0  0  0  0  0  0  0  0
    6.1694   -6.7541    3.0547 C   0  0  2  0  0  0  0  0  0  0  0  0
   10.7628   -6.0292    3.3219 H   0  0  0  0  0  0  0  0  0  0  0  0
    9.6365   -7.3744    3.3929 H   0  0  0  0  0  0  0  0  0  0  0  0
    9.8358   -6.3134    4.7985 H   0  0  0  0  0  0  0  0  0  0  0  0
    7.6428   -5.2416    4.6004 H   0  0  0  0  0  0  0  0  0  0  0  0
    6.6938   -7.2038    5.1200 H   0  0  0  0  0  0  0  0  0  0  0  0
    7.0805   -9.4737    4.3937 H   0  0  0  0  0  0  0  0  0  0  0  0
    7.2209  -10.3731    2.2035 H   0  0  0  0  0  0  0  0  0  0  0  0
    7.3037   -8.9055    0.3295 H   0  0  0  0  0  0  0  0  0  0  0  0
    8.3691   -5.4854    0.9280 H   0  0  0  0  0  0  0  0  0  0  0  0
    8.2180   -6.7906   -0.1838 H   0  0  0  0  0  0  0  0  0  0  0  0
    8.9801   -7.0536    1.3466 H   0  0  0  0  0  0  0  0  0  0  0  0
    5.9198   -6.2322   -0.3324 H   0  0  0  0  0  0  0  0  0  0  0  0
    3.4876   -6.3779    0.8249 H   0  0  0  0  0  0  0  0  0  0  0  0
    3.0535   -8.5321    1.3392 H   0  0  0  0  0  0  0  0  0  0  0  0
    4.6951   -9.1687    4.8943 H   0  0  0  0  0  0  0  0  0  0  0  0
    0.6874   -7.5311    5.9438 H   0  0  0  0  0  0  0  0  0  0  0  0
   -0.5176   -6.6003    5.0923 H   0  0  0  0  0  0  0  0  0  0  0  0
    0.1497   -6.7964    2.3314 H   0  0  0  0  0  0  0  0  0  0  0  0
    0.0692   -8.4805    1.8230 H   0  0  0  0  0  0  0  0  0  0  0  0
   -2.0954   -6.9189    3.2784 H   0  0  0  0  0  0  0  0  0  0  0  0
   -2.2495   -7.8731    1.7745 H   0  0  0  0  0  0  0  0  0  0  0  0
   -2.9556   -8.9670    4.1024 H   0  0  0  0  0  0  0  0  0  0  0  0
   -2.1308   -9.8860    2.8719 H   0  0  0  0  0  0  0  0  0  0  0  0
   -0.4581  -10.2506    4.3920 H   0  0  0  0  0  0  0  0  0  0  0  0
   -1.0748   -9.0482    5.5023 H   0  0  0  0  0  0  0  0  0  0  0  0
    1.6145   -9.8421    3.2195 H   0  0  0  0  0  0  0  0  0  0  0  0
    1.9335   -9.3748    4.8757 H   0  0  0  0  0  0  0  0  0  0  0  0
    6.0162   -5.1339    5.7450 H   0  0  0  0  0  0  0  0  0  0  0  0
    4.6630   -6.2264    5.7141 H   0  0  0  0  0  0  0  0  0  0  0  0
    4.4530   -4.5057    5.4293 H   0  0  0  0  0  0  0  0  0  0  0  0
    6.2117   -3.7823    3.3262 H   0  0  0  0  0  0  0  0  0  0  0  0
    4.8823   -4.3157    1.1564 H   0  0  0  0  0  0  0  0  0  0  0  0
    7.3231   -1.9783    0.4039 H   0  0  0  0  0  0  0  0  0  0  0  0
    6.3956   -2.2408    1.8654 H   0  0  0  0  0  0  0  0  0  0  0  0
    5.5896   -2.2506    0.2968 H   0  0  0  0  0  0  0  0  0  0  0  0
    5.2836   -7.1800    3.0169 H   0  0  0  0  0  0  0  0  0  0  0  0
  1  2  1  0
  1 36  1  0
  1 37  1  0
  1 38  1  0
  2  3  1  0
  3 31  1  0
  3  4  1  0
  3 39  1  1
  4 35  1  0
  4  5  1  0
  4 40  1  1
  5 15  1  0
  5  6  1  0
  5 41  1  1
  6  7  2  0
  6 42  1  0
  7  8  1  0
  7 43  1  0
  8 35  1  0
  8  9  1  1
  8 10  1  0
  9 44  1  0
  9 45  1  0
  9 46  1  0
 10 32  1  0
 10 11  1  0
 10 47  1  6
 11 12  2  3
 11 48  1  0
 12 13  1  0
 12 49  1  0
 13 15  1  0
 13 14  1  6
 13 16  1  0
 14 15  1  0
 15 50  1  1
 16 26  1  0
 16 17  2  0
 17 18  1  0
 17 27  1  0
 18 19  2  0
 18 20  1  0
 20 21  1  0
 20 51  1  0
 20 52  1  0
 21 25  1  0
 21 22  1  0
 21 26  1  0
 22 23  1  0
 22 53  1  0
 22 54  1  0
 23 24  1  0
 23 55  1  0
 23 56  1  0
 24 25  1  0
 24 57  1  0
 24 58  1  0
 25 59  1  0
 25 60  1  0
 26 61  1  0
 26 62  1  0
 27 28  2  0
 27 29  1  0
 29 30  1  1
 29 31  1  0
 29 35  1  0
 30 63  1  0
 30 64  1  0
 30 65  1  0
 31 32  1  0
 31 66  1  1
 32 33  1  0
 32 67  1  1
 33 34  1  0
 34 68  1  0
 34 69  1  0
 34 70  1  0
 35 71  1  6
M  END
>  <i_m_ct_stereo_status>  (271) 
1

>  <s_m_source_file>  (271) 
/var/tmp/pbs.5076255.sched01/tmpnpseqx1a/1202b9de7rm.sdf

>  <i_m_source_file_index>  (271) 
5

>  <i_lp_mmshare_version>  (271) 
48012

>  <i_f3d_flags>  (271) 
0

>  <s_epik_input>  (271) 
W0NAXTEyM1tDQEBIXShPMilbQ0BASF00W0NAQEhdNVtDQEBIXTZbQ0BAXShbQ0gzXSkoW0NIXT1bQ0hdNClbQ0BASF0oL1tDSF09W0NIXVwxKVtDQEhdKE9bQ0gzXSlbQ0BIXShbQ0BASF01T1tDSDNdKVtDQEBdNihbQ0gzXSlDKD1PKUM3PUMzW0NIMl1DOChbQ0gyXUM3PU8pW0NIMl1bQ0gyXVtDSDJdW0NIMl04

>  <s_epik_cmdline>  (271) 
J2VwaWtfcHl0aG9uJywgJy1waHQnLCAnMi4wJywgJy1waCcsICc3LjAnLCAnLXRuJywgJzgnLCAnLW1hJywgJzIwMCcsICctaW1hZScsICc8aW5maWxlLm1hZT4nLCAnLW9tYWUnLCAnPG91dGZpbGUubWFlPic=

>  <r_lp_tautomer_probability>  (271) 
1

>  <r_epik_Ionization_Penalty>  (271) 
5.82843e-12

>  <r_epik_Ionization_Penalty_Charging>  (271) 
0

>  <r_epik_Ionization_Penalty_Neutral>  (271) 
5.82843e-12

>  <r_epik_State_Penalty>  (271) 
-0

>  <r_epik_Charging_Adjusted_Penalty>  (271) 
0

>  <i_epik_Tot_Q>  (271) 
0

>  <i_epik_Tot_abs_Q>  (271) 
0

>  <s_lp_Force_Field>  (271) 
OPLS3e

>  <r_lp_Energy>  (271) 
386.227

>  <b_lp_Chiralities_Consistent>  (271) 
1

>  <s_lp_Variant>  (271) 
92:0-2

>  <s_i_glide_gridfile>  (271) 
pfpi4k_grid

>  <i_i_glide_lignum>  (271) 
5

>  <i_i_glide_rotatable_bonds>  (271) 
2

>  <r_i_docking_score>  (271) 
2.80279

>  <r_i_glide_ligand_efficiency>  (271) 
0.0800798

>  <r_i_glide_ligand_efficiency_sa>  (271) 
0.261946

>  <r_i_glide_ligand_efficiency_ln>  (271) 
0.615275

>  <r_i_glide_gscore>  (271) 
2.80279

>  <r_i_glide_lipo>  (271) 
-0.701875

>  <r_i_glide_hbond>  (271) 
0

>  <r_i_glide_metal>  (271) 
-0

>  <r_i_glide_rewards>  (271) 
-0.159519

>  <r_i_glide_evdw>  (271) 
-12.1422

>  <r_i_glide_ecoul>  (271) 
2.16038

>  <r_i_glide_erotb>  (271) 
0

>  <r_i_glide_esite>  (271) 
-0.00320066

>  <r_i_glide_emodel>  (271) 
9.23969

>  <r_i_glide_energy>  (271) 
-9.98178

>  <r_i_glide_einternal>  (271) 
1.58472

>  <r_i_glide_intrahb_reward>  (271) 
-0

>  <i_i_glide_confnum>  (271) 
3

>  <i_i_glide_posenum>  (271) 
2

>  <r_i_glide_eff_state_penalty>  (271) 
0

>  <ligand_id>  (271) 
92

>  <original_smiles>  (271) 
COC1C2C3C=CC4(C)C5C=CC6(OC36)C3=C(C(=O)CC6(CCCC6)C3)C(=O)C(C)(C1C5OC)C24

>  <smiles>  (271) 
[H]C1=C([H])C2([H])C([H])(OC([H])([H])[H])C3([H])C([H])(OC([H])([H])[H])C4([H])C5([H])C([H])=C([H])C2(C([H])([H])[H])C4([H])C3(C([H])([H])[H])C(=O)C2=C(C([H])([H])C3(C([H])([H])C2=O)C([H])([H])C([H])([H])C([H])([H])C3([H])[H])C12OC25[H]

$$$$
93:0:0
     RDKit          3D

 33 35  0  0  1  0  0  0  0  0999 V2000
    3.6580   -0.9173   -2.8261 C   0  0  0  0  0  0  0  0  0  0  0  0
    3.4129   -1.4769   -1.4831 N   0  0  2  0  0  0  0  0  0  0  0  0
    4.3337   -1.0014   -0.4335 C   0  0  0  0  0  0  0  0  0  0  0  0
    4.1555   -1.9836    0.7217 C   0  0  0  0  0  0  0  0  0  0  0  0
    3.6683   -3.3029    0.0697 C   0  0  2  0  0  0  0  0  0  0  0  0
    3.4958   -2.9453   -1.4267 C   0  0  0  0  0  0  0  0  0  0  0  0
    2.3592   -3.6675    0.5651 O   0  0  0  0  0  0  0  0  0  0  0  0
    2.5352   -4.7727    1.3842 C   0  0  1  0  0  0  0  0  0  0  0  0
    1.5083   -5.6921    1.5557 O   0  0  0  0  0  0  0  0  0  0  0  0
    2.1705   -6.9194    1.9502 C   0  0  0  0  0  0  0  0  0  0  0  0
    3.6652   -6.7490    1.5596 C   0  0  1  0  0  0  0  0  0  0  0  0
    4.1861   -7.8804    0.8823 O   0  0  0  0  0  0  0  0  0  0  0  0
    3.5250   -5.5753    0.6259 C   0  0  2  0  0  0  0  0  0  0  0  0
    4.5748   -4.5276    0.4026 C   0  0  1  0  0  0  0  0  0  0  0  0
    5.4180   -4.9152   -0.6524 O   0  0  0  0  0  0  0  0  0  0  0  0
    4.6504   -1.1794   -3.1939 H   0  0  0  0  0  0  0  0  0  0  0  0
    3.5959    0.1662   -2.8307 H   0  0  0  0  0  0  0  0  0  0  0  0
    2.9348   -1.2956   -3.5498 H   0  0  0  0  0  0  0  0  0  0  0  0
    5.3507   -1.0867   -0.8131 H   0  0  0  0  0  0  0  0  0  0  0  0
    4.1882    0.0400   -0.1520 H   0  0  0  0  0  0  0  0  0  0  0  0
    5.0966   -2.0932    1.2621 H   0  0  0  0  0  0  0  0  0  0  0  0
    3.4203   -1.5925    1.4266 H   0  0  0  0  0  0  0  0  0  0  0  0
    2.6653   -3.4600   -1.9260 H   0  0  0  0  0  0  0  0  0  0  0  0
    4.4008   -3.1821   -1.9846 H   0  0  0  0  0  0  0  0  0  0  0  0
    2.9015   -4.4491    2.3636 H   0  0  0  0  0  0  0  0  0  0  0  0
    2.0674   -7.0709    3.0280 H   0  0  0  0  0  0  0  0  0  0  0  0
    1.6924   -7.7639    1.4443 H   0  0  0  0  0  0  0  0  0  0  0  0
    4.2691   -6.4914    2.4355 H   0  0  0  0  0  0  0  0  0  0  0  0
    4.1644   -8.6271    1.4585 H   0  0  0  0  0  0  0  0  0  0  0  0
    3.0489   -5.8906   -0.3092 H   0  0  0  0  0  0  0  0  0  0  0  0
    5.1377   -4.3813    1.3297 H   0  0  0  0  0  0  0  0  0  0  0  0
    4.8825   -5.1480   -1.4044 H   0  0  0  0  0  0  0  0  0  0  0  0
    2.4592   -1.2329   -1.1744 H   0  0  0  0  0  0  0  0  0  0  0  0
  1  2  1  0
  1 16  1  0
  1 17  1  0
  1 18  1  0
  2  6  1  0
  2  3  1  0
  2 33  1  1
  3  4  1  0
  3 19  1  0
  3 20  1  0
  4  5  1  0
  4 21  1  0
  4 22  1  0
  5 14  1  0
  5  6  1  0
  5  7  1  1
  6 23  1  0
  6 24  1  0
  7  8  1  0
  8 13  1  0
  8  9  1  0
  8 25  1  1
  9 10  1  0
 10 11  1  0
 10 26  1  0
 10 27  1  0
 11 12  1  0
 11 13  1  0
 11 28  1  1
 12 29  1  0
 13 14  1  0
 13 30  1  6
 14 15  1  0
 14 31  1  1
 15 32  1  0
M  CHG  1   2   1
M  END
>  <i_m_ct_stereo_status>  (272) 
1

>  <s_m_source_file>  (272) 
/var/tmp/pbs.5076255.sched01/tmpnpseqx1a/1202b9de7rm.sdf

>  <i_m_source_file_index>  (272) 
6

>  <i_lp_mmshare_version>  (272) 
48012

>  <i_f3d_flags>  (272) 
0

>  <s_epik_input>  (272) 
W0NIM11OKFtDSDJdMSlbQ0gyXVtDSDJdW0NAQF0xMk9bQ0BASF0zW0NASF0oW0NAQEhdKFtDSDJdTzMpW09IXSlbQ0BIXTJbT0hd

>  <s_epik_cmdline>  (272) 
J2VwaWtfcHl0aG9uJywgJy1waHQnLCAnMi4wJywgJy1waCcsICc3LjAnLCAnLXRuJywgJzgnLCAnLW1hJywgJzIwMCcsICctaW1hZScsICc8aW5maWxlLm1hZT4nLCAnLW9tYWUnLCAnPG91dGZpbGUubWFlPic=

>  <r_epik_Ionization_Penalty>  (272) 
0.0119939

>  <r_epik_Ionization_Penalty_Charging>  (272) 
0.0118997

>  <r_epik_Ionization_Penalty_Neutral>  (272) 
9.42049e-05

>  <r_epik_State_Penalty>  (272) 
0.00918297

>  <r_epik_Charging_Adjusted_Penalty>  (272) 
0.0210827

>  <i_epik_Tot_Q>  (272) 
1

>  <i_epik_Tot_abs_Q>  (272) 
1

>  <s_epik_Chemistry_Notes>  (272) 
This compound contains an acetal/aminal-like group ( X-CH(R)-Y where X, Y are N, S, or O) that may be acid/base labile, releasing an aldehyde.

>  <s_lp_Force_Field>  (272) 
OPLS3e

>  <r_lp_Energy>  (272) 
16.6903

>  <b_lp_Chiralities_Consistent>  (272) 
1

>  <s_lp_Variant>  (272) 
93:0-1

>  <s_i_glide_gridfile>  (272) 
pfpi4k_grid

>  <i_i_glide_lignum>  (272) 
6

>  <i_i_glide_rotatable_bonds>  (272) 
2

>  <r_i_docking_score>  (272) 
-4.30034

>  <r_i_glide_ligand_efficiency>  (272) 
-0.28669

>  <r_i_glide_ligand_efficiency_sa>  (272) 
-0.707037

>  <r_i_glide_ligand_efficiency_ln>  (272) 
-1.15973

>  <r_i_glide_gscore>  (272) 
-4.30034

>  <r_i_glide_lipo>  (272) 
-0.110413

>  <r_i_glide_hbond>  (272) 
-0.307541

>  <r_i_glide_metal>  (272) 
-0

>  <r_i_glide_rewards>  (272) 
-1.93463

>  <r_i_glide_evdw>  (272) 
-11.6826

>  <r_i_glide_ecoul>  (272) 
-8.28051

>  <r_i_glide_erotb>  (272) 
0

>  <r_i_glide_esite>  (272) 
-0.121555

>  <r_i_glide_emodel>  (272) 
-26.7831

>  <r_i_glide_energy>  (272) 
-19.9631

>  <r_i_glide_einternal>  (272) 
0.372449

>  <r_i_glide_intrahb_reward>  (272) 
-0

>  <i_i_glide_confnum>  (272) 
2

>  <i_i_glide_posenum>  (272) 
17

>  <r_i_glide_eff_state_penalty>  (272) 
0

>  <ligand_id>  (272) 
93

>  <original_smiles>  (272) 
CN1CCC2(C1)OC1OCC(O)C1C2O

>  <smiles>  (272) 
[H]OC1([H])C([H])([H])OC2([H])OC3(C([H])([H])C([H])([H])[N+]([H])(C([H])([H])[H])C3([H])[H])C([H])(O[H])C21[H]

$$$$
93:0:1
     RDKit          3D

 33 35  0  0  1  0  0  0  0  0999 V2000
    3.3102   -1.4804   -2.4866 C   0  0  0  0  0  0  0  0  0  0  0  0
    3.0222   -2.1919   -1.2230 N   0  0  2  0  0  0  0  0  0  0  0  0
    3.6376   -1.6084   -0.0214 C   0  0  0  0  0  0  0  0  0  0  0  0
    3.5459   -2.6921    1.0535 C   0  0  0  0  0  0  0  0  0  0  0  0
    3.4909   -4.0295    0.2755 C   0  0  2  0  0  0  0  0  0  0  0  0
    3.4411   -3.6035   -1.2165 C   0  0  0  0  0  0  0  0  0  0  0  0
    2.2389   -4.7301    0.5446 O   0  0  0  0  0  0  0  0  0  0  0  0
    2.5839   -5.8269    1.3295 C   0  0  1  0  0  0  0  0  0  0  0  0
    1.7962   -6.9694    1.3003 O   0  0  0  0  0  0  0  0  0  0  0  0
    2.6695   -8.0391    1.7230 C   0  0  0  0  0  0  0  0  0  0  0  0
    4.1238   -7.5019    1.5720 C   0  0  1  0  0  0  0  0  0  0  0  0
    4.9624   -8.4362    0.9028 O   0  0  0  0  0  0  0  0  0  0  0  0
    3.8445   -6.3044    0.6985 C   0  0  2  0  0  0  0  0  0  0  0  0
    4.6292   -5.0237    0.6898 C   0  0  1  0  0  0  0  0  0  0  0  0
    5.6793   -5.0888   -0.2420 O   0  0  0  0  0  0  0  0  0  0  0  0
    4.3760   -1.4611   -2.7152 H   0  0  0  0  0  0  0  0  0  0  0  0
    2.9609   -0.4493   -2.4412 H   0  0  0  0  0  0  0  0  0  0  0  0
    2.7999   -1.9580   -3.3247 H   0  0  0  0  0  0  0  0  0  0  0  0
    4.6870   -1.4033   -0.2245 H   0  0  0  0  0  0  0  0  0  0  0  0
    3.1581   -0.6731    0.2744 H   0  0  0  0  0  0  0  0  0  0  0  0
    4.3950   -2.6291    1.7286 H   0  0  0  0  0  0  0  0  0  0  0  0
    2.6447   -2.5576    1.6535 H   0  0  0  0  0  0  0  0  0  0  0  0
    2.8004   -4.2312   -1.8330 H   0  0  0  0  0  0  0  0  0  0  0  0
    4.4350   -3.5994   -1.6453 H   0  0  0  0  0  0  0  0  0  0  0  0
    2.7371   -5.5103    2.3627 H   0  0  0  0  0  0  0  0  0  0  0  0
    2.4611   -8.2978    2.7611 H   0  0  0  0  0  0  0  0  0  0  0  0
    2.4820   -8.9191    1.1026 H   0  0  0  0  0  0  0  0  0  0  0  0
    4.5338   -7.2027    2.5458 H   0  0  0  0  0  0  0  0  0  0  0  0
    4.9267   -9.2687    1.3542 H   0  0  0  0  0  0  0  0  0  0  0  0
    3.6100   -6.6530   -0.3159 H   0  0  0  0  0  0  0  0  0  0  0  0
    5.0010   -4.8461    1.6986 H   0  0  0  0  0  0  0  0  0  0  0  0
    5.3157   -5.3377   -1.0815 H   0  0  0  0  0  0  0  0  0  0  0  0
    2.0130   -2.0983   -1.0541 H   0  0  0  0  0  0  0  0  0  0  0  0
  1  2  1  0
  1 16  1  0
  1 17  1  0
  1 18  1  0
  2  6  1  0
  2  3  1  0
  2 33  1  1
  3  4  1  0
  3 19  1  0
  3 20  1  0
  4  5  1  0
  4 21  1  0
  4 22  1  0
  5 14  1  0
  5  6  1  0
  5  7  1  1
  6 23  1  0
  6 24  1  0
  7  8  1  0
  8 13  1  0
  8  9  1  0
  8 25  1  1
  9 10  1  0
 10 11  1  0
 10 26  1  0
 10 27  1  0
 11 12  1  0
 11 13  1  0
 11 28  1  1
 12 29  1  0
 13 14  1  0
 13 30  1  6
 14 15  1  0
 14 31  1  1
 15 32  1  0
M  CHG  1   2   1
M  END
>  <i_m_ct_stereo_status>  (273) 
1

>  <s_m_source_file>  (273) 
/var/tmp/pbs.5076255.sched01/tmpnpseqx1a/1202b9de7rm.sdf

>  <i_m_source_file_index>  (273) 
6

>  <i_lp_mmshare_version>  (273) 
48012

>  <i_f3d_flags>  (273) 
0

>  <s_epik_input>  (273) 
W0NIM11OKFtDSDJdMSlbQ0gyXVtDSDJdW0NAQF0xMk9bQ0BASF0zW0NASF0oW0NAQEhdKFtDSDJdTzMpW09IXSlbQ0BIXTJbT0hd

>  <s_epik_cmdline>  (273) 
J2VwaWtfcHl0aG9uJywgJy1waHQnLCAnMi4wJywgJy1waCcsICc3LjAnLCAnLXRuJywgJzgnLCAnLW1hJywgJzIwMCcsICctaW1hZScsICc8aW5maWxlLm1hZT4nLCAnLW9tYWUnLCAnPG91dGZpbGUubWFlPic=

>  <r_epik_Ionization_Penalty>  (273) 
0.0119939

>  <r_epik_Ionization_Penalty_Charging>  (273) 
0.0118997

>  <r_epik_Ionization_Penalty_Neutral>  (273) 
9.42049e-05

>  <r_epik_State_Penalty>  (273) 
0.00918297

>  <r_epik_Charging_Adjusted_Penalty>  (273) 
0.0210827

>  <i_epik_Tot_Q>  (273) 
1

>  <i_epik_Tot_abs_Q>  (273) 
1

>  <s_epik_Chemistry_Notes>  (273) 
This compound contains an acetal/aminal-like group ( X-CH(R)-Y where X, Y are N, S, or O) that may be acid/base labile, releasing an aldehyde.

>  <s_lp_Force_Field>  (273) 
OPLS3e

>  <r_lp_Energy>  (273) 
16.6903

>  <b_lp_Chiralities_Consistent>  (273) 
1

>  <s_lp_Variant>  (273) 
93:0-1

>  <s_i_glide_gridfile>  (273) 
pfpi4k_grid

>  <i_i_glide_lignum>  (273) 
6

>  <i_i_glide_rotatable_bonds>  (273) 
2

>  <r_i_docking_score>  (273) 
-4.25004

>  <r_i_glide_ligand_efficiency>  (273) 
-0.283336

>  <r_i_glide_ligand_efficiency_sa>  (273) 
-0.698767

>  <r_i_glide_ligand_efficiency_ln>  (273) 
-1.14617

>  <r_i_glide_gscore>  (273) 
-4.25004

>  <r_i_glide_lipo>  (273) 
-0.203131

>  <r_i_glide_hbond>  (273) 
-0.197962

>  <r_i_glide_metal>  (273) 
-0

>  <r_i_glide_rewards>  (273) 
-1.93463

>  <r_i_glide_evdw>  (273) 
-11.0879

>  <r_i_glide_ecoul>  (273) 
-8.39785

>  <r_i_glide_erotb>  (273) 
0

>  <r_i_glide_esite>  (273) 
-0.100242

>  <r_i_glide_emodel>  (273) 
-26.0875

>  <r_i_glide_energy>  (273) 
-19.4858

>  <r_i_glide_einternal>  (273) 
0.563876

>  <r_i_glide_intrahb_reward>  (273) 
-0

>  <i_i_glide_confnum>  (273) 
1

>  <i_i_glide_posenum>  (273) 
1

>  <r_i_glide_eff_state_penalty>  (273) 
0

>  <ligand_id>  (273) 
93

>  <original_smiles>  (273) 
CN1CCC2(C1)OC1OCC(O)C1C2O

>  <smiles>  (273) 
[H]OC1([H])C([H])([H])OC2([H])OC3(C([H])([H])C([H])([H])[N+]([H])(C([H])([H])[H])C3([H])[H])C([H])(O[H])C21[H]

$$$$
93:0:2
     RDKit          3D

 33 35  0  0  1  0  0  0  0  0999 V2000
    3.8756   -1.1459   -2.5953 C   0  0  0  0  0  0  0  0  0  0  0  0
    3.4214   -1.8170   -1.3622 N   0  0  2  0  0  0  0  0  0  0  0  0
    3.8964   -1.2303   -0.1028 C   0  0  0  0  0  0  0  0  0  0  0  0
    3.6494   -2.2982    0.9647 C   0  0  0  0  0  0  0  0  0  0  0  0
    3.6514   -3.6509    0.2072 C   0  0  2  0  0  0  0  0  0  0  0  0
    3.7916   -3.2395   -1.2801 C   0  0  0  0  0  0  0  0  0  0  0  0
    2.3779   -4.3126    0.3459 O   0  0  0  0  0  0  0  0  0  0  0  0
    2.5814   -5.3881    1.1716 C   0  0  1  0  0  0  0  0  0  0  0  0
    1.7464   -6.4727    1.0766 O   0  0  0  0  0  0  0  0  0  0  0  0
    2.5076   -7.5753    1.6214 C   0  0  0  0  0  0  0  0  0  0  0  0
    3.9942   -7.1034    1.6471 C   0  0  1  0  0  0  0  0  0  0  0  0
    4.8863   -8.0731    1.1203 O   0  0  0  0  0  0  0  0  0  0  0  0
    3.8809   -5.9277    0.7138 C   0  0  2  0  0  0  0  0  0  0  0  0
    4.6851   -4.6717    0.7967 C   0  0  1  0  0  0  0  0  0  0  0  0
    5.8779   -4.8107    0.0773 O   0  0  0  0  0  0  0  0  0  0  0  0
    4.9686   -1.1727   -2.6906 H   0  0  0  0  0  0  0  0  0  0  0  0
    3.5833   -0.0979   -2.6411 H   0  0  0  0  0  0  0  0  0  0  0  0
    3.4714   -1.6334   -3.4842 H   0  0  0  0  0  0  0  0  0  0  0  0
    4.9779   -1.0598   -0.1814 H   0  0  0  0  0  0  0  0  0  0  0  0
    3.4244   -0.2726    0.1261 H   0  0  0  0  0  0  0  0  0  0  0  0
    4.4043   -2.2345    1.7446 H   0  0  0  0  0  0  0  0  0  0  0  0
    2.6812   -2.1178    1.4422 H   0  0  0  0  0  0  0  0  0  0  0  0
    3.2255   -3.8547   -1.9831 H   0  0  0  0  0  0  0  0  0  0  0  0
    4.8331   -3.2718   -1.6025 H   0  0  0  0  0  0  0  0  0  0  0  0
    2.5969   -5.0409    2.2125 H   0  0  0  0  0  0  0  0  0  0  0  0
    2.1806   -7.8179    2.6370 H   0  0  0  0  0  0  0  0  0  0  0  0
    2.3820   -8.4733    1.0080 H   0  0  0  0  0  0  0  0  0  0  0  0
    4.2942   -6.7793    2.6514 H   0  0  0  0  0  0  0  0  0  0  0  0
    4.8617   -8.8442    1.6637 H   0  0  0  0  0  0  0  0  0  0  0  0
    3.7564   -6.2693   -0.3181 H   0  0  0  0  0  0  0  0  0  0  0  0
    4.9124   -4.4679    1.8372 H   0  0  0  0  0  0  0  0  0  0  0  0
    6.2674   -3.9694   -0.0567 H   0  0  0  0  0  0  0  0  0  0  0  0
    2.3850   -1.7498   -1.2915 H   0  0  0  0  0  0  0  0  0  0  0  0
  1  2  1  0
  1 16  1  0
  1 17  1  0
  1 18  1  0
  2  6  1  0
  2  3  1  0
  2 33  1  1
  3  4  1  0
  3 19  1  0
  3 20  1  0
  4  5  1  0
  4 21  1  0
  4 22  1  0
  5 14  1  0
  5  6  1  0
  5  7  1  6
  6 23  1  0
  6 24  1  0
  7  8  1  0
  8 13  1  0
  8  9  1  0
  8 25  1  1
  9 10  1  0
 10 11  1  0
 10 26  1  0
 10 27  1  0
 11 12  1  0
 11 13  1  0
 11 28  1  1
 12 29  1  0
 13 14  1  0
 13 30  1  6
 14 15  1  0
 14 31  1  1
 15 32  1  0
M  CHG  1   2   1
M  END
>  <i_m_ct_stereo_status>  (274) 
1

>  <s_m_source_file>  (274) 
/var/tmp/pbs.5076255.sched01/tmpnpseqx1a/1202b9de7rm.sdf

>  <i_m_source_file_index>  (274) 
6

>  <i_lp_mmshare_version>  (274) 
48012

>  <i_f3d_flags>  (274) 
0

>  <s_epik_input>  (274) 
W0NIM11OKFtDSDJdMSlbQ0gyXVtDSDJdW0NAQF0xMk9bQ0BASF0zW0NASF0oW0NAQEhdKFtDSDJdTzMpW09IXSlbQ0BIXTJbT0hd

>  <s_epik_cmdline>  (274) 
J2VwaWtfcHl0aG9uJywgJy1waHQnLCAnMi4wJywgJy1waCcsICc3LjAnLCAnLXRuJywgJzgnLCAnLW1hJywgJzIwMCcsICctaW1hZScsICc8aW5maWxlLm1hZT4nLCAnLW9tYWUnLCAnPG91dGZpbGUubWFlPic=

>  <r_epik_Ionization_Penalty>  (274) 
0.0119939

>  <r_epik_Ionization_Penalty_Charging>  (274) 
0.0118997

>  <r_epik_Ionization_Penalty_Neutral>  (274) 
9.42049e-05

>  <r_epik_State_Penalty>  (274) 
0.00918297

>  <r_epik_Charging_Adjusted_Penalty>  (274) 
0.0210827

>  <i_epik_Tot_Q>  (274) 
1

>  <i_epik_Tot_abs_Q>  (274) 
1

>  <s_epik_Chemistry_Notes>  (274) 
This compound contains an acetal/aminal-like group ( X-CH(R)-Y where X, Y are N, S, or O) that may be acid/base labile, releasing an aldehyde.

>  <s_lp_Force_Field>  (274) 
OPLS3e

>  <r_lp_Energy>  (274) 
16.6903

>  <b_lp_Chiralities_Consistent>  (274) 
1

>  <s_lp_Variant>  (274) 
93:0-1

>  <s_i_glide_gridfile>  (274) 
pfpi4k_grid

>  <i_i_glide_lignum>  (274) 
6

>  <i_i_glide_rotatable_bonds>  (274) 
2

>  <r_i_docking_score>  (274) 
-3.9719

>  <r_i_glide_ligand_efficiency>  (274) 
-0.264794

>  <r_i_glide_ligand_efficiency_sa>  (274) 
-0.653037

>  <r_i_glide_ligand_efficiency_ln>  (274) 
-1.07116

>  <r_i_glide_gscore>  (274) 
-3.9719

>  <r_i_glide_lipo>  (274) 
-0.158451

>  <r_i_glide_hbond>  (274) 
-0.2

>  <r_i_glide_metal>  (274) 
-0

>  <r_i_glide_rewards>  (274) 
-1.93463

>  <r_i_glide_evdw>  (274) 
-13.6261

>  <r_i_glide_ecoul>  (274) 
-5.89691

>  <r_i_glide_erotb>  (274) 
0

>  <r_i_glide_esite>  (274) 
-0.112983

>  <r_i_glide_emodel>  (274) 
-25.631

>  <r_i_glide_energy>  (274) 
-19.523

>  <r_i_glide_einternal>  (274) 
0.664164

>  <r_i_glide_intrahb_reward>  (274) 
-0

>  <i_i_glide_confnum>  (274) 
1

>  <i_i_glide_posenum>  (274) 
14

>  <r_i_glide_eff_state_penalty>  (274) 
0

>  <ligand_id>  (274) 
93

>  <original_smiles>  (274) 
CN1CCC2(C1)OC1OCC(O)C1C2O

>  <smiles>  (274) 
[H]OC1([H])C([H])([H])OC2([H])OC3(C([H])([H])C([H])([H])[N+]([H])(C([H])([H])[H])C3([H])[H])C([H])(O[H])C21[H]

$$$$
93:1:0
     RDKit          3D

 32 34  0  0  1  0  0  0  0  0999 V2000
    3.7465    0.1471   -4.6281 C   0  0  0  0  0  0  0  0  0  0  0  0
    4.2088   -1.1125   -4.0780 N   0  0  0  0  0  0  0  0  0  0  0  0
    3.2204   -2.1670   -4.0929 C   0  0  0  0  0  0  0  0  0  0  0  0
    3.7216   -3.2456   -3.1397 C   0  0  0  0  0  0  0  0  0  0  0  0
    4.5751   -2.4634   -2.1095 C   0  0  2  0  0  0  0  0  0  0  0  0
    4.5464   -1.0220   -2.6641 C   0  0  0  0  0  0  0  0  0  0  0  0
    5.9537   -2.9254   -2.1264 O   0  0  0  0  0  0  0  0  0  0  0  0
    6.1394   -3.6300   -0.9593 C   0  0  1  0  0  0  0  0  0  0  0  0
    7.3949   -3.7304   -0.4042 O   0  0  0  0  0  0  0  0  0  0  0  0
    7.1774   -4.0155    0.9891 C   0  0  0  0  0  0  0  0  0  0  0  0
    5.7039   -3.6269    1.2726 C   0  0  1  0  0  0  0  0  0  0  0  0
    5.5301   -2.8453    2.4416 O   0  0  0  0  0  0  0  0  0  0  0  0
    5.4364   -2.7998    0.0478 C   0  0  2  0  0  0  0  0  0  0  0  0
    4.1049   -2.6762   -0.6322 C   0  0  1  0  0  0  0  0  0  0  0  0
    3.4115   -1.6001   -0.0550 O   0  0  0  0  0  0  0  0  0  0  0  0
    3.4769    0.0428   -5.6780 H   0  0  0  0  0  0  0  0  0  0  0  0
    4.5156    0.9116   -4.5598 H   0  0  0  0  0  0  0  0  0  0  0  0
    2.8740    0.5192   -4.0913 H   0  0  0  0  0  0  0  0  0  0  0  0
    2.2696   -1.7766   -3.7244 H   0  0  0  0  0  0  0  0  0  0  0  0
    3.0526   -2.5553   -5.0964 H   0  0  0  0  0  0  0  0  0  0  0  0
    2.8758   -3.7586   -2.6957 H   0  0  0  0  0  0  0  0  0  0  0  0
    4.3102   -3.9893   -3.6872 H   0  0  0  0  0  0  0  0  0  0  0  0
    5.4685   -0.4646   -2.4909 H   0  0  0  0  0  0  0  0  0  0  0  0
    3.7517   -0.4580   -2.2003 H   0  0  0  0  0  0  0  0  0  0  0  0
    5.6983   -4.6361   -1.0678 H   0  0  0  0  0  0  0  0  0  0  0  0
    7.3458   -5.0738    1.2059 H   0  0  0  0  0  0  0  0  0  0  0  0
    7.8894   -3.4559    1.5944 H   0  0  0  0  0  0  0  0  0  0  0  0
    5.0658   -4.5164    1.3012 H   0  0  0  0  0  0  0  0  0  0  0  0
    4.6524   -2.5394    2.4576 H   0  0  0  0  0  0  0  0  0  0  0  0
    5.9600   -1.8341    0.0915 H   0  0  0  0  0  0  0  0  0  0  0  0
    3.5662   -3.6152   -0.5178 H   0  0  0  0  0  0  0  0  0  0  0  0
    2.5788   -1.4555   -0.5038 H   0  0  0  0  0  0  0  0  0  0  0  0
  1  2  1  0
  1 16  1  0
  1 17  1  0
  1 18  1  0
  2  6  1  0
  2  3  1  0
  3  4  1  0
  3 19  1  0
  3 20  1  0
  4  5  1  0
  4 21  1  0
  4 22  1  0
  5 14  1  0
  5  6  1  0
  5  7  1  1
  6 23  1  0
  6 24  1  0
  7  8  1  0
  8 13  1  0
  8  9  1  0
  8 25  1  6
  9 10  1  0
 10 11  1  0
 10 26  1  0
 10 27  1  0
 11 12  1  0
 11 13  1  0
 11 28  1  1
 12 29  1  0
 13 14  1  0
 13 30  1  1
 14 15  1  0
 14 31  1  6
 15 32  1  0
M  END
>  <i_m_ct_stereo_status>  (275) 
1

>  <s_m_source_file>  (275) 
/var/tmp/pbs.5076255.sched01/tmpnpseqx1a/1202b9de7rm.sdf

>  <i_m_source_file_index>  (275) 
7

>  <i_lp_mmshare_version>  (275) 
48012

>  <i_f3d_flags>  (275) 
0

>  <s_epik_input>  (275) 
W0NIM11OKFtDSDJdMSlbQ0gyXVtDSDJdW0NAQF0xMk9bQ0BASF0zW0NASF0oW0NAQEhdKFtDSDJdTzMpW09IXSlbQ0BIXTJbT0hd

>  <s_epik_cmdline>  (275) 
J2VwaWtfcHl0aG9uJywgJy1waHQnLCAnMi4wJywgJy1waCcsICc3LjAnLCAnLXRuJywgJzgnLCAnLW1hJywgJzIwMCcsICctaW1hZScsICc8aW5maWxlLm1hZT4nLCAnLW9tYWUnLCAnPG91dGZpbGUubWFlPic=

>  <r_epik_Ionization_Penalty>  (275) 
2.32126

>  <r_epik_Ionization_Penalty_Charging>  (275) 
0

>  <r_epik_Ionization_Penalty_Neutral>  (275) 
2.32126

>  <r_epik_State_Penalty>  (275) 
2.47346

>  <r_epik_Charging_Adjusted_Penalty>  (275) 
2.47346

>  <i_epik_Tot_Q>  (275) 
0

>  <i_epik_Tot_abs_Q>  (275) 
0

>  <s_epik_Chemistry_Notes>  (275) 
This compound contains an acetal/aminal-like group ( X-CH(R)-Y where X, Y are N, S, or O) that may be acid/base labile, releasing an aldehyde.

>  <s_lp_Force_Field>  (275) 
OPLS3e

>  <r_lp_Energy>  (275) 
7.85904

>  <b_lp_Chiralities_Consistent>  (275) 
1

>  <s_lp_Variant>  (275) 
93:0-2

>  <s_i_glide_gridfile>  (275) 
pfpi4k_grid

>  <i_i_glide_lignum>  (275) 
7

>  <i_i_glide_rotatable_bonds>  (275) 
2

>  <r_i_docking_score>  (275) 
-4.56016

>  <r_i_glide_ligand_efficiency>  (275) 
-0.304011

>  <r_i_glide_ligand_efficiency_sa>  (275) 
-0.749755

>  <r_i_glide_ligand_efficiency_ln>  (275) 
-1.2298

>  <r_i_glide_gscore>  (275) 
-4.56016

>  <r_i_glide_lipo>  (275) 
-0.521528

>  <r_i_glide_hbond>  (275) 
-0.16

>  <r_i_glide_metal>  (275) 
-0

>  <r_i_glide_rewards>  (275) 
-2.06032

>  <r_i_glide_evdw>  (275) 
-17.2398

>  <r_i_glide_ecoul>  (275) 
-6.3755

>  <r_i_glide_erotb>  (275) 
0

>  <r_i_glide_esite>  (275) 
0

>  <r_i_glide_emodel>  (275) 
-30.4857

>  <r_i_glide_energy>  (275) 
-23.6153

>  <r_i_glide_einternal>  (275) 
0.652693

>  <r_i_glide_intrahb_reward>  (275) 
-0

>  <i_i_glide_confnum>  (275) 
1

>  <i_i_glide_posenum>  (275) 
3

>  <r_i_glide_eff_state_penalty>  (275) 
0

>  <ligand_id>  (275) 
93

>  <original_smiles>  (275) 
CN1CCC2(C1)OC1OCC(O)C1C2O

>  <smiles>  (275) 
[H]OC1([H])C([H])([H])OC2([H])OC3(C([H])([H])N(C([H])([H])[H])C([H])([H])C3([H])[H])C([H])(O[H])C21[H]

$$$$
93:1:1
     RDKit          3D

 32 34  0  0  1  0  0  0  0  0999 V2000
    2.6657    0.1512   -4.6166 C   0  0  0  0  0  0  0  0  0  0  0  0
    3.5411   -0.4262   -3.6058 N   0  0  0  0  0  0  0  0  0  0  0  0
    4.4254   -1.4149   -4.1255 C   0  0  0  0  0  0  0  0  0  0  0  0
    4.9619   -2.2100   -2.9312 C   0  0  0  0  0  0  0  0  0  0  0  0
    3.8192   -2.1201   -1.8972 C   0  0  2  0  0  0  0  0  0  0  0  0
    2.8169   -1.1839   -2.6217 C   0  0  0  0  0  0  0  0  0  0  0  0
    4.2687   -1.4938   -0.6791 O   0  0  0  0  0  0  0  0  0  0  0  0
    4.3376   -2.4854    0.2757 C   0  0  1  0  0  0  0  0  0  0  0  0
    4.1816   -2.1596    1.6014 O   0  0  0  0  0  0  0  0  0  0  0  0
    3.7617   -3.3931    2.2318 C   0  0  0  0  0  0  0  0  0  0  0  0
    3.3002   -4.3369    1.0917 C   0  0  1  0  0  0  0  0  0  0  0  0
    2.1210   -5.0551    1.4053 O   0  0  0  0  0  0  0  0  0  0  0  0
    3.1150   -3.2803    0.0292 C   0  0  2  0  0  0  0  0  0  0  0  0
    3.2981   -3.4978   -1.4217 C   0  0  1  0  0  0  0  0  0  0  0  0
    2.0289   -3.8520   -1.9046 O   0  0  0  0  0  0  0  0  0  0  0  0
    3.2350    0.7180   -5.3499 H   0  0  0  0  0  0  0  0  0  0  0  0
    1.9448    0.8309   -4.1736 H   0  0  0  0  0  0  0  0  0  0  0  0
    2.0773   -0.6083   -5.1251 H   0  0  0  0  0  0  0  0  0  0  0  0
    3.8789   -2.0947   -4.7722 H   0  0  0  0  0  0  0  0  0  0  0  0
    5.1736   -0.9205   -4.7221 H   0  0  0  0  0  0  0  0  0  0  0  0
    5.2139   -3.2229   -3.2436 H   0  0  0  0  0  0  0  0  0  0  0  0
    5.8641   -1.7631   -2.5157 H   0  0  0  0  0  0  0  0  0  0  0  0
    2.2757   -0.5146   -1.9619 H   0  0  0  0  0  0  0  0  0  0  0  0
    2.1035   -1.7842   -3.1771 H   0  0  0  0  0  0  0  0  0  0  0  0
    5.2786   -3.0232    0.1440 H   0  0  0  0  0  0  0  0  0  0  0  0
    4.5865   -3.8521    2.7794 H   0  0  0  0  0  0  0  0  0  0  0  0
    2.9726   -3.1845    2.9583 H   0  0  0  0  0  0  0  0  0  0  0  0
    4.0965   -5.0378    0.8259 H   0  0  0  0  0  0  0  0  0  0  0  0
    2.0312   -5.7314    0.7538 H   0  0  0  0  0  0  0  0  0  0  0  0
    2.2479   -2.6351    0.2156 H   0  0  0  0  0  0  0  0  0  0  0  0
    4.0540   -4.2631   -1.5917 H   0  0  0  0  0  0  0  0  0  0  0  0
    2.1700   -4.6860   -2.3314 H   0  0  0  0  0  0  0  0  0  0  0  0
  1  2  1  0
  1 16  1  0
  1 17  1  0
  1 18  1  0
  2  6  1  0
  2  3  1  0
  3  4  1  0
  3 19  1  0
  3 20  1  0
  4  5  1  0
  4 21  1  0
  4 22  1  0
  5 14  1  0
  5  6  1  0
  5  7  1  1
  6 23  1  0
  6 24  1  0
  7  8  1  0
  8 13  1  0
  8  9  1  0
  8 25  1  1
  9 10  1  0
 10 11  1  0
 10 26  1  0
 10 27  1  0
 11 12  1  0
 11 13  1  0
 11 28  1  6
 12 29  1  0
 13 14  1  0
 13 30  1  6
 14 15  1  0
 14 31  1  1
 15 32  1  0
M  END
>  <i_m_ct_stereo_status>  (276) 
1

>  <s_m_source_file>  (276) 
/var/tmp/pbs.5076255.sched01/tmpnpseqx1a/1202b9de7rm.sdf

>  <i_m_source_file_index>  (276) 
7

>  <i_lp_mmshare_version>  (276) 
48012

>  <i_f3d_flags>  (276) 
0

>  <s_epik_input>  (276) 
W0NIM11OKFtDSDJdMSlbQ0gyXVtDSDJdW0NAQF0xMk9bQ0BASF0zW0NASF0oW0NAQEhdKFtDSDJdTzMpW09IXSlbQ0BIXTJbT0hd

>  <s_epik_cmdline>  (276) 
J2VwaWtfcHl0aG9uJywgJy1waHQnLCAnMi4wJywgJy1waCcsICc3LjAnLCAnLXRuJywgJzgnLCAnLW1hJywgJzIwMCcsICctaW1hZScsICc8aW5maWxlLm1hZT4nLCAnLW9tYWUnLCAnPG91dGZpbGUubWFlPic=

>  <r_epik_Ionization_Penalty>  (276) 
2.32126

>  <r_epik_Ionization_Penalty_Charging>  (276) 
0

>  <r_epik_Ionization_Penalty_Neutral>  (276) 
2.32126

>  <r_epik_State_Penalty>  (276) 
2.47346

>  <r_epik_Charging_Adjusted_Penalty>  (276) 
2.47346

>  <i_epik_Tot_Q>  (276) 
0

>  <i_epik_Tot_abs_Q>  (276) 
0

>  <s_epik_Chemistry_Notes>  (276) 
This compound contains an acetal/aminal-like group ( X-CH(R)-Y where X, Y are N, S, or O) that may be acid/base labile, releasing an aldehyde.

>  <s_lp_Force_Field>  (276) 
OPLS3e

>  <r_lp_Energy>  (276) 
7.85904

>  <b_lp_Chiralities_Consistent>  (276) 
1

>  <s_lp_Variant>  (276) 
93:0-2

>  <s_i_glide_gridfile>  (276) 
pfpi4k_grid

>  <i_i_glide_lignum>  (276) 
7

>  <i_i_glide_rotatable_bonds>  (276) 
2

>  <r_i_docking_score>  (276) 
-3.15499

>  <r_i_glide_ligand_efficiency>  (276) 
-0.210333

>  <r_i_glide_ligand_efficiency_sa>  (276) 
-0.518725

>  <r_i_glide_ligand_efficiency_ln>  (276) 
-0.850849

>  <r_i_glide_gscore>  (276) 
-3.15499

>  <r_i_glide_lipo>  (276) 
-0.139836

>  <r_i_glide_hbond>  (276) 
-0.0176234

>  <r_i_glide_metal>  (276) 
-0

>  <r_i_glide_rewards>  (276) 
-1.9415

>  <r_i_glide_evdw>  (276) 
-9.4252

>  <r_i_glide_ecoul>  (276) 
-3.86504

>  <r_i_glide_erotb>  (276) 
0

>  <r_i_glide_esite>  (276) 
-0.00501131

>  <r_i_glide_emodel>  (276) 
-16.5633

>  <r_i_glide_energy>  (276) 
-13.2902

>  <r_i_glide_einternal>  (276) 
2.16976

>  <r_i_glide_intrahb_reward>  (276) 
-0

>  <i_i_glide_confnum>  (276) 
3

>  <i_i_glide_posenum>  (276) 
28

>  <r_i_glide_eff_state_penalty>  (276) 
0

>  <ligand_id>  (276) 
93

>  <original_smiles>  (276) 
CN1CCC2(C1)OC1OCC(O)C1C2O

>  <smiles>  (276) 
[H]OC1([H])C([H])([H])OC2([H])OC3(C([H])([H])N(C([H])([H])[H])C([H])([H])C3([H])[H])C([H])(O[H])C21[H]

$$$$
93:1:2
     RDKit          3D

 32 34  0  0  1  0  0  0  0  0999 V2000
    2.6006    0.0171   -4.7310 C   0  0  0  0  0  0  0  0  0  0  0  0
    3.5101   -0.5896   -3.7462 N   0  0  0  0  0  0  0  0  0  0  0  0
    4.2190   -1.7267   -4.2584 C   0  0  0  0  0  0  0  0  0  0  0  0
    4.7968   -2.4619   -3.0456 C   0  0  0  0  0  0  0  0  0  0  0  0
    3.8200   -2.1064   -1.9066 C   0  0  2  0  0  0  0  0  0  0  0  0
    2.8341   -1.1464   -2.6005 C   0  0  0  0  0  0  0  0  0  0  0  0
    4.5183   -1.3649   -0.8694 O   0  0  0  0  0  0  0  0  0  0  0  0
    4.5977   -2.2396    0.2218 C   0  0  1  0  0  0  0  0  0  0  0  0
    4.6877   -1.7362    1.5046 O   0  0  0  0  0  0  0  0  0  0  0  0
    4.2161   -2.7927    2.3480 C   0  0  0  0  0  0  0  0  0  0  0  0
    3.4641   -3.7964    1.4376 C   0  0  1  0  0  0  0  0  0  0  0  0
    2.2245   -4.2274    1.9695 O   0  0  0  0  0  0  0  0  0  0  0  0
    3.2589   -2.8980    0.2384 C   0  0  2  0  0  0  0  0  0  0  0  0
    3.2206   -3.3685   -1.1930 C   0  0  1  0  0  0  0  0  0  0  0  0
    1.9014   -3.7131   -1.5112 O   0  0  0  0  0  0  0  0  0  0  0  0
    3.1368    0.3723   -5.6149 H   0  0  0  0  0  0  0  0  0  0  0  0
    2.0623    0.8659   -4.3167 H   0  0  0  0  0  0  0  0  0  0  0  0
    1.8378   -0.6825   -5.0735 H   0  0  0  0  0  0  0  0  0  0  0  0
    3.5105   -2.4029   -4.7457 H   0  0  0  0  0  0  0  0  0  0  0  0
    4.9619   -1.3906   -4.9712 H   0  0  0  0  0  0  0  0  0  0  0  0
    4.8780   -3.5275   -3.2397 H   0  0  0  0  0  0  0  0  0  0  0  0
    5.7841   -2.0974   -2.7979 H   0  0  0  0  0  0  0  0  0  0  0  0
    2.4602   -0.3467   -1.9704 H   0  0  0  0  0  0  0  0  0  0  0  0
    1.9985   -1.7384   -2.9515 H   0  0  0  0  0  0  0  0  0  0  0  0
    5.4288   -2.9396    0.0484 H   0  0  0  0  0  0  0  0  0  0  0  0
    5.0501   -3.2906    2.8361 H   0  0  0  0  0  0  0  0  0  0  0  0
    3.5681   -2.3828    3.1170 H   0  0  0  0  0  0  0  0  0  0  0  0
    4.0940   -4.6479    1.1690 H   0  0  0  0  0  0  0  0  0  0  0  0
    2.3963   -4.7264    2.7593 H   0  0  0  0  0  0  0  0  0  0  0  0
    2.5143   -2.1245    0.4346 H   0  0  0  0  0  0  0  0  0  0  0  0
    3.8752   -4.2294   -1.2802 H   0  0  0  0  0  0  0  0  0  0  0  0
    1.9019   -4.0774   -2.3966 H   0  0  0  0  0  0  0  0  0  0  0  0
  1  2  1  0
  1 16  1  0
  1 17  1  0
  1 18  1  0
  2  6  1  0
  2  3  1  0
  3  4  1  0
  3 19  1  0
  3 20  1  0
  4  5  1  0
  4 21  1  0
  4 22  1  0
  5 14  1  0
  5  6  1  0
  5  7  1  1
  6 23  1  0
  6 24  1  0
  7  8  1  0
  8 13  1  0
  8  9  1  0
  8 25  1  6
  9 10  1  0
 10 11  1  0
 10 26  1  0
 10 27  1  0
 11 12  1  0
 11 13  1  0
 11 28  1  6
 12 29  1  0
 13 14  1  0
 13 30  1  1
 14 15  1  0
 14 31  1  1
 15 32  1  0
M  END
>  <i_m_ct_stereo_status>  (277) 
1

>  <s_m_source_file>  (277) 
/var/tmp/pbs.5076255.sched01/tmpnpseqx1a/1202b9de7rm.sdf

>  <i_m_source_file_index>  (277) 
7

>  <i_lp_mmshare_version>  (277) 
48012

>  <i_f3d_flags>  (277) 
0

>  <s_epik_input>  (277) 
W0NIM11OKFtDSDJdMSlbQ0gyXVtDSDJdW0NAQF0xMk9bQ0BASF0zW0NASF0oW0NAQEhdKFtDSDJdTzMpW09IXSlbQ0BIXTJbT0hd

>  <s_epik_cmdline>  (277) 
J2VwaWtfcHl0aG9uJywgJy1waHQnLCAnMi4wJywgJy1waCcsICc3LjAnLCAnLXRuJywgJzgnLCAnLW1hJywgJzIwMCcsICctaW1hZScsICc8aW5maWxlLm1hZT4nLCAnLW9tYWUnLCAnPG91dGZpbGUubWFlPic=

>  <r_epik_Ionization_Penalty>  (277) 
2.32126

>  <r_epik_Ionization_Penalty_Charging>  (277) 
0

>  <r_epik_Ionization_Penalty_Neutral>  (277) 
2.32126

>  <r_epik_State_Penalty>  (277) 
2.47346

>  <r_epik_Charging_Adjusted_Penalty>  (277) 
2.47346

>  <i_epik_Tot_Q>  (277) 
0

>  <i_epik_Tot_abs_Q>  (277) 
0

>  <s_epik_Chemistry_Notes>  (277) 
This compound contains an acetal/aminal-like group ( X-CH(R)-Y where X, Y are N, S, or O) that may be acid/base labile, releasing an aldehyde.

>  <s_lp_Force_Field>  (277) 
OPLS3e

>  <r_lp_Energy>  (277) 
7.85904

>  <b_lp_Chiralities_Consistent>  (277) 
1

>  <s_lp_Variant>  (277) 
93:0-2

>  <s_i_glide_gridfile>  (277) 
pfpi4k_grid

>  <i_i_glide_lignum>  (277) 
7

>  <i_i_glide_rotatable_bonds>  (277) 
2

>  <r_i_docking_score>  (277) 
-3.03611

>  <r_i_glide_ligand_efficiency>  (277) 
-0.202408

>  <r_i_glide_ligand_efficiency_sa>  (277) 
-0.49918

>  <r_i_glide_ligand_efficiency_ln>  (277) 
-0.81879

>  <r_i_glide_gscore>  (277) 
-3.03611

>  <r_i_glide_lipo>  (277) 
-0.236768

>  <r_i_glide_hbond>  (277) 
-0.0390823

>  <r_i_glide_metal>  (277) 
-0

>  <r_i_glide_rewards>  (277) 
-1.9415

>  <r_i_glide_evdw>  (277) 
-13.1178

>  <r_i_glide_ecoul>  (277) 
-1.05639

>  <r_i_glide_erotb>  (277) 
0

>  <r_i_glide_esite>  (277) 
-0.00441294

>  <r_i_glide_emodel>  (277) 
-18.4748

>  <r_i_glide_energy>  (277) 
-14.1742

>  <r_i_glide_einternal>  (277) 
0.901054

>  <r_i_glide_intrahb_reward>  (277) 
-0

>  <i_i_glide_confnum>  (277) 
3

>  <i_i_glide_posenum>  (277) 
7

>  <r_i_glide_eff_state_penalty>  (277) 
0

>  <ligand_id>  (277) 
93

>  <original_smiles>  (277) 
CN1CCC2(C1)OC1OCC(O)C1C2O

>  <smiles>  (277) 
[H]OC1([H])C([H])([H])OC2([H])OC3(C([H])([H])N(C([H])([H])[H])C([H])([H])C3([H])[H])C([H])(O[H])C21[H]

$$$$
94:0:0
     RDKit          3D

 39 42  0  0  1  0  0  0  0  0999 V2000
    5.1711   -1.8919   -2.3391 O   0  0  0  0  0  0  0  0  0  0  0  0
    4.0274   -1.5363   -2.0394 C   0  0  0  0  0  0  0  0  0  0  0  0
    3.2420   -0.8449   -2.8666 N   0  0  0  0  0  0  0  0  0  0  0  0
    3.5398   -0.5949   -4.2406 C   0  0  0  0  0  0  0  0  0  0  0  0
    3.8152    0.8220   -4.7044 C   0  0  0  0  0  0  0  0  0  0  0  0
    2.5100    0.1725   -5.0305 C   0  0  0  0  0  0  0  0  0  0  0  0
    3.4145   -1.8279   -0.8828 N   0  0  0  0  0  0  0  0  0  0  0  0
    3.8738   -2.7610    0.1535 C   0  0  1  0  0  0  0  0  0  0  0  0
    5.3225   -2.4619    0.6428 C   0  0  0  0  0  0  0  0  0  0  0  0
    5.7207   -3.4613    1.7471 C   0  0  2  0  0  0  0  0  0  0  0  0
    5.6625   -4.8971    1.1858 C   0  0  0  0  0  0  0  0  0  0  0  0
    4.2193   -5.2107    0.7444 C   0  0  1  0  0  0  0  0  0  0  0  0
    3.2540   -5.0698    1.9375 C   0  0  0  0  0  0  0  0  0  0  0  0
    3.3198   -3.6272    2.4778 C   0  0  1  0  0  0  0  0  0  0  0  0
    4.7570   -3.3142    2.9424 C   0  0  0  0  0  0  0  0  0  0  0  0
    2.9221   -2.6270    1.3676 C   0  0  0  0  0  0  0  0  0  0  0  0
    3.8019   -4.2237   -0.3666 C   0  0  0  0  0  0  0  0  0  0  0  0
    2.3200   -0.5907   -2.5339 H   0  0  0  0  0  0  0  0  0  0  0  0
    4.0418   -1.3953   -4.7820 H   0  0  0  0  0  0  0  0  0  0  0  0
    3.8279    1.6091   -3.9534 H   0  0  0  0  0  0  0  0  0  0  0  0
    4.5238    0.9444   -5.5183 H   0  0  0  0  0  0  0  0  0  0  0  0
    2.3664   -0.1314   -6.0567 H   0  0  0  0  0  0  0  0  0  0  0  0
    1.6346    0.5674   -4.5221 H   0  0  0  0  0  0  0  0  0  0  0  0
    2.4653   -1.4683   -0.7605 H   0  0  0  0  0  0  0  0  0  0  0  0
    6.0525   -2.5557   -0.1599 H   0  0  0  0  0  0  0  0  0  0  0  0
    5.4012   -1.4375    1.0081 H   0  0  0  0  0  0  0  0  0  0  0  0
    6.7370   -3.2449    2.0703 H   0  0  0  0  0  0  0  0  0  0  0  0
    6.3351   -4.9950    0.3334 H   0  0  0  0  0  0  0  0  0  0  0  0
    6.0075   -5.6184    1.9269 H   0  0  0  0  0  0  0  0  0  0  0  0
    4.1715   -6.2284    0.3583 H   0  0  0  0  0  0  0  0  0  0  0  0
    2.2395   -5.3059    1.6235 H   0  0  0  0  0  0  0  0  0  0  0  0
    3.5017   -5.7862    2.7220 H   0  0  0  0  0  0  0  0  0  0  0  0
    2.6364   -3.5219    3.3213 H   0  0  0  0  0  0  0  0  0  0  0  0
    5.0506   -3.9756    3.7571 H   0  0  0  0  0  0  0  0  0  0  0  0
    4.8097   -2.2960    3.3330 H   0  0  0  0  0  0  0  0  0  0  0  0
    2.9576   -1.6085    1.7567 H   0  0  0  0  0  0  0  0  0  0  0  0
    1.8868   -2.7901    1.0675 H   0  0  0  0  0  0  0  0  0  0  0  0
    2.7919   -4.4553   -0.7054 H   0  0  0  0  0  0  0  0  0  0  0  0
    4.4388   -4.3650   -1.2412 H   0  0  0  0  0  0  0  0  0  0  0  0
  1  2  2  0
  2  3  1  0
  2  7  1  0
  3  4  1  0
  3 18  1  0
  4  6  1  0
  4  5  1  0
  4 19  1  0
  5  6  1  0
  5 20  1  0
  5 21  1  0
  6 22  1  0
  6 23  1  0
  8  7  1  6
  7 24  1  0
  8 16  1  0
  8 17  1  0
  8  9  1  0
  9 10  1  0
  9 25  1  0
  9 26  1  0
 10 15  1  0
 10 11  1  0
 10 27  1  1
 11 12  1  0
 11 28  1  0
 11 29  1  0
 12 13  1  0
 12 17  1  0
 12 30  1  6
 13 14  1  0
 13 31  1  0
 13 32  1  0
 14 15  1  0
 14 16  1  0
 14 33  1  1
 15 34  1  0
 15 35  1  0
 16 36  1  0
 16 37  1  0
 17 38  1  0
 17 39  1  0
M  END
>  <i_m_ct_stereo_status>  (278) 
1

>  <s_m_source_file>  (278) 
/var/tmp/pbs.5076255.sched01/tmpnpseqx1a/1202b9de7rm.sdf

>  <i_m_source_file_index>  (278) 
8

>  <i_lp_mmshare_version>  (278) 
48012

>  <i_f3d_flags>  (278) 
0

>  <s_epik_input>  (278) 
W0NIMl0xW0NIMl1bQ0hdMVtOSF1DKD1PKVtOSF1DMjNbQ0gyXVtDQEhdNFtDSDJdW0NAQEhdKFtDSDJdMylbQ0gyXVtDQEhdKFtDSDJdNClbQ0gyXTI=

>  <s_epik_cmdline>  (278) 
J2VwaWtfcHl0aG9uJywgJy1waHQnLCAnMi4wJywgJy1waCcsICc3LjAnLCAnLXRuJywgJzgnLCAnLW1hJywgJzIwMCcsICctaW1hZScsICc8aW5maWxlLm1hZT4nLCAnLW9tYWUnLCAnPG91dGZpbGUubWFlPic=

>  <r_lp_tautomer_probability>  (278) 
1

>  <r_epik_Ionization_Penalty>  (278) 
7.95287e-05

>  <r_epik_Ionization_Penalty_Charging>  (278) 
0

>  <r_epik_Ionization_Penalty_Neutral>  (278) 
7.95287e-05

>  <r_epik_State_Penalty>  (278) 
-0

>  <r_epik_Charging_Adjusted_Penalty>  (278) 
0

>  <i_epik_Tot_Q>  (278) 
0

>  <i_epik_Tot_abs_Q>  (278) 
0

>  <s_lp_Force_Field>  (278) 
OPLS3e

>  <r_lp_Energy>  (278) 
-1.6431

>  <b_lp_Chiralities_Consistent>  (278) 
1

>  <s_lp_Variant>  (278) 
94:0-1

>  <s_i_glide_gridfile>  (278) 
pfpi4k_grid

>  <i_i_glide_lignum>  (278) 
8

>  <i_i_glide_rotatable_bonds>  (278) 
4

>  <r_i_docking_score>  (278) 
-3.82736

>  <r_i_glide_ligand_efficiency>  (278) 
-0.225139

>  <r_i_glide_ligand_efficiency_sa>  (278) 
-0.578895

>  <r_i_glide_ligand_efficiency_ln>  (278) 
-0.998473

>  <r_i_glide_gscore>  (278) 
-3.82736

>  <r_i_glide_lipo>  (278) 
-0.535308

>  <r_i_glide_hbond>  (278) 
-0.191389

>  <r_i_glide_metal>  (278) 
-0

>  <r_i_glide_rewards>  (278) 
-1.81134

>  <r_i_glide_evdw>  (278) 
-21.8103

>  <r_i_glide_ecoul>  (278) 
-4.44157

>  <r_i_glide_erotb>  (278) 
0.625417

>  <r_i_glide_esite>  (278) 
-0.157993

>  <r_i_glide_emodel>  (278) 
-32.1999

>  <r_i_glide_energy>  (278) 
-26.2519

>  <r_i_glide_einternal>  (278) 
1.40369

>  <r_i_glide_intrahb_reward>  (278) 
-0

>  <i_i_glide_confnum>  (278) 
4

>  <i_i_glide_posenum>  (278) 
28

>  <r_i_glide_eff_state_penalty>  (278) 
0

>  <ligand_id>  (278) 
94

>  <original_smiles>  (278) 
O=C(NC1CC1)NC12CC3CC(CC(C3)C1)C2

>  <smiles>  (278) 
[H]N(C(=O)N([H])C12C([H])([H])C3([H])C([H])([H])C([H])(C([H])([H])C([H])(C3([H])[H])C1([H])[H])C2([H])[H])C1([H])C([H])([H])C1([H])[H]

$$$$
94:0:1
     RDKit          3D

 39 42  0  0  1  0  0  0  0  0999 V2000
   -2.1808    0.1494    6.4415 O   0  0  0  0  0  0  0  0  0  0  0  0
   -1.5156    0.9390    5.7675 C   0  0  0  0  0  0  0  0  0  0  0  0
   -1.1561    0.6737    4.5086 N   0  0  0  0  0  0  0  0  0  0  0  0
   -0.1699    1.3690    3.7296 C   0  0  0  0  0  0  0  0  0  0  0  0
   -0.2038    1.2632    2.2234 C   0  0  0  0  0  0  0  0  0  0  0  0
    0.8392    0.5155    3.0058 C   0  0  0  0  0  0  0  0  0  0  0  0
   -1.1236    2.1519    6.1839 N   0  0  0  0  0  0  0  0  0  0  0  0
   -1.3631    2.8115    7.4584 C   0  0  1  0  0  0  0  0  0  0  0  0
   -0.8280    1.9740    8.6498 C   0  0  0  0  0  0  0  0  0  0  0  0
   -1.0768    2.7329    9.9646 C   0  0  2  0  0  0  0  0  0  0  0  0
   -2.5912    2.9804   10.1312 C   0  0  0  0  0  0  0  0  0  0  0  0
   -3.1100    3.8441    8.9643 C   0  0  1  0  0  0  0  0  0  0  0  0
   -2.3571    5.1884    8.9336 C   0  0  0  0  0  0  0  0  0  0  0  0
   -0.8470    4.9299    8.7514 C   0  0  1  0  0  0  0  0  0  0  0  0
   -0.3249    4.0817    9.9300 C   0  0  0  0  0  0  0  0  0  0  0  0
   -0.6036    4.1648    7.4335 C   0  0  0  0  0  0  0  0  0  0  0  0
   -2.8730    3.0906    7.6345 C   0  0  0  0  0  0  0  0  0  0  0  0
   -1.5348   -0.1710    4.1073 H   0  0  0  0  0  0  0  0  0  0  0  0
    0.2070    2.3266    4.1006 H   0  0  0  0  0  0  0  0  0  0  0  0
   -1.0116    0.6929    1.7629 H   0  0  0  0  0  0  0  0  0  0  0  0
    0.1250    2.1398    1.6699 H   0  0  0  0  0  0  0  0  0  0  0  0
    1.8587    0.8954    3.0074 H   0  0  0  0  0  0  0  0  0  0  0  0
    0.7348   -0.5660    3.1008 H   0  0  0  0  0  0  0  0  0  0  0  0
   -0.6302    2.7074    5.5029 H   0  0  0  0  0  0  0  0  0  0  0  0
   -1.3173    1.0032    8.7027 H   0  0  0  0  0  0  0  0  0  0  0  0
    0.2336    1.7685    8.5262 H   0  0  0  0  0  0  0  0  0  0  0  0
   -0.7157    2.1338   10.8046 H   0  0  0  0  0  0  0  0  0  0  0  0
   -3.1295    2.0348   10.1454 H   0  0  0  0  0  0  0  0  0  0  0  0
   -2.8017    3.4538   11.0890 H   0  0  0  0  0  0  0  0  0  0  0  0
   -4.1772    4.0243    9.0889 H   0  0  0  0  0  0  0  0  0  0  0  0
   -2.7319    5.8032    8.1174 H   0  0  0  0  0  0  0  0  0  0  0  0
   -2.5460    5.7529    9.8462 H   0  0  0  0  0  0  0  0  0  0  0  0
   -0.3157    5.8839    8.7276 H   0  0  0  0  0  0  0  0  0  0  0  0
   -0.4544    4.6158   10.8698 H   0  0  0  0  0  0  0  0  0  0  0  0
    0.7467    3.9055    9.8158 H   0  0  0  0  0  0  0  0  0  0  0  0
    0.4625    3.9916    7.3023 H   0  0  0  0  0  0  0  0  0  0  0  0
   -0.9061    4.7743    6.5820 H   0  0  0  0  0  0  0  0  0  0  0  0
   -3.2386    3.6758    6.7921 H   0  0  0  0  0  0  0  0  0  0  0  0
   -3.4502    2.1685    7.6222 H   0  0  0  0  0  0  0  0  0  0  0  0
  1  2  2  0
  2  3  1  0
  2  7  1  0
  3  4  1  0
  3 18  1  0
  4  6  1  0
  4  5  1  0
  4 19  1  0
  5  6  1  0
  5 20  1  0
  5 21  1  0
  6 22  1  0
  6 23  1  0
  8  7  1  6
  7 24  1  0
  8 16  1  0
  8 17  1  0
  8  9  1  0
  9 10  1  0
  9 25  1  0
  9 26  1  0
 10 15  1  0
 10 11  1  0
 10 27  1  1
 11 12  1  0
 11 28  1  0
 11 29  1  0
 12 13  1  0
 12 17  1  0
 12 30  1  1
 13 14  1  0
 13 31  1  0
 13 32  1  0
 14 15  1  0
 14 16  1  0
 14 33  1  6
 15 34  1  0
 15 35  1  0
 16 36  1  0
 16 37  1  0
 17 38  1  0
 17 39  1  0
M  END
>  <i_m_ct_stereo_status>  (279) 
1

>  <s_m_source_file>  (279) 
/var/tmp/pbs.5076255.sched01/tmpnpseqx1a/1202b9de7rm.sdf

>  <i_m_source_file_index>  (279) 
8

>  <i_lp_mmshare_version>  (279) 
48012

>  <i_f3d_flags>  (279) 
0

>  <s_epik_input>  (279) 
W0NIMl0xW0NIMl1bQ0hdMVtOSF1DKD1PKVtOSF1DMjNbQ0gyXVtDQEhdNFtDSDJdW0NAQEhdKFtDSDJdMylbQ0gyXVtDQEhdKFtDSDJdNClbQ0gyXTI=

>  <s_epik_cmdline>  (279) 
J2VwaWtfcHl0aG9uJywgJy1waHQnLCAnMi4wJywgJy1waCcsICc3LjAnLCAnLXRuJywgJzgnLCAnLW1hJywgJzIwMCcsICctaW1hZScsICc8aW5maWxlLm1hZT4nLCAnLW9tYWUnLCAnPG91dGZpbGUubWFlPic=

>  <r_lp_tautomer_probability>  (279) 
1

>  <r_epik_Ionization_Penalty>  (279) 
7.95287e-05

>  <r_epik_Ionization_Penalty_Charging>  (279) 
0

>  <r_epik_Ionization_Penalty_Neutral>  (279) 
7.95287e-05

>  <r_epik_State_Penalty>  (279) 
-0

>  <r_epik_Charging_Adjusted_Penalty>  (279) 
0

>  <i_epik_Tot_Q>  (279) 
0

>  <i_epik_Tot_abs_Q>  (279) 
0

>  <s_lp_Force_Field>  (279) 
OPLS3e

>  <r_lp_Energy>  (279) 
-1.6431

>  <b_lp_Chiralities_Consistent>  (279) 
1

>  <s_lp_Variant>  (279) 
94:0-1

>  <s_i_glide_gridfile>  (279) 
pfpi4k_grid

>  <i_i_glide_lignum>  (279) 
8

>  <i_i_glide_rotatable_bonds>  (279) 
4

>  <r_i_docking_score>  (279) 
-3.53225

>  <r_i_glide_ligand_efficiency>  (279) 
-0.20778

>  <r_i_glide_ligand_efficiency_sa>  (279) 
-0.53426

>  <r_i_glide_ligand_efficiency_ln>  (279) 
-0.921486

>  <r_i_glide_gscore>  (279) 
-3.53225

>  <r_i_glide_lipo>  (279) 
-0.214

>  <r_i_glide_hbond>  (279) 
-0.16

>  <r_i_glide_metal>  (279) 
-0

>  <r_i_glide_rewards>  (279) 
-1.81134

>  <r_i_glide_evdw>  (279) 
-18.2072

>  <r_i_glide_ecoul>  (279) 
-6.59087

>  <r_i_glide_erotb>  (279) 
0.625417

>  <r_i_glide_esite>  (279) 
-0.0733463

>  <r_i_glide_emodel>  (279) 
-26.0378

>  <r_i_glide_energy>  (279) 
-24.798

>  <r_i_glide_einternal>  (279) 
10.0498

>  <r_i_glide_intrahb_reward>  (279) 
-0

>  <i_i_glide_confnum>  (279) 
5

>  <i_i_glide_posenum>  (279) 
32

>  <r_i_glide_eff_state_penalty>  (279) 
0

>  <ligand_id>  (279) 
94

>  <original_smiles>  (279) 
O=C(NC1CC1)NC12CC3CC(CC(C3)C1)C2

>  <smiles>  (279) 
[H]N(C(=O)N([H])C12C([H])([H])C3([H])C([H])([H])C([H])(C([H])([H])C([H])(C3([H])[H])C1([H])[H])C2([H])[H])C1([H])C([H])([H])C1([H])[H]

$$$$
94:0:2
     RDKit          3D

 39 42  0  0  1  0  0  0  0  0999 V2000
    4.8323   -1.8110   -1.9741 O   0  0  0  0  0  0  0  0  0  0  0  0
    3.6797   -2.2431   -1.9766 C   0  0  0  0  0  0  0  0  0  0  0  0
    2.7705   -1.9628   -2.9227 N   0  0  0  0  0  0  0  0  0  0  0  0
    2.9130   -1.0534   -4.0145 C   0  0  0  0  0  0  0  0  0  0  0  0
    4.2182   -1.0086   -4.7322 C   0  0  0  0  0  0  0  0  0  0  0  0
    3.7935    0.1829   -3.9234 C   0  0  0  0  0  0  0  0  0  0  0  0
    3.2027   -3.0650   -1.0394 N   0  0  0  0  0  0  0  0  0  0  0  0
    4.0084   -3.6570    0.0287 C   0  0  1  0  0  0  0  0  0  0  0  0
    4.7050   -2.5842    0.9200 C   0  0  0  0  0  0  0  0  0  0  0  0
    5.5047   -3.2763    2.0367 C   0  0  2  0  0  0  0  0  0  0  0  0
    6.5760   -4.1919    1.4031 C   0  0  0  0  0  0  0  0  0  0  0  0
    5.8862   -5.2775    0.5561 C   0  0  1  0  0  0  0  0  0  0  0  0
    4.9234   -6.1092    1.4238 C   0  0  0  0  0  0  0  0  0  0  0  0
    3.8560   -5.1794    2.0375 C   0  0  1  0  0  0  0  0  0  0  0  0
    4.5407   -4.1057    2.9073 C   0  0  0  0  0  0  0  0  0  0  0  0
    3.0563   -4.4869    0.9137 C   0  0  0  0  0  0  0  0  0  0  0  0
    5.0828   -4.6017   -0.5765 C   0  0  0  0  0  0  0  0  0  0  0  0
    1.8538   -2.3777   -2.8232 H   0  0  0  0  0  0  0  0  0  0  0  0
    2.0414   -0.9432   -4.6589 H   0  0  0  0  0  0  0  0  0  0  0  0
    4.9954   -1.6683   -4.3572 H   0  0  0  0  0  0  0  0  0  0  0  0
    4.1314   -0.9188   -5.8076 H   0  0  0  0  0  0  0  0  0  0  0  0
    3.4966    1.0615   -4.4903 H   0  0  0  0  0  0  0  0  0  0  0  0
    4.2889    0.3899   -2.9812 H   0  0  0  0  0  0  0  0  0  0  0  0
    2.2364   -3.3477   -1.1028 H   0  0  0  0  0  0  0  0  0  0  0  0
    5.4024   -1.9626    0.3602 H   0  0  0  0  0  0  0  0  0  0  0  0
    3.9723   -1.8945    1.3370 H   0  0  0  0  0  0  0  0  0  0  0  0
    5.9936   -2.5166    2.6474 H   0  0  0  0  0  0  0  0  0  0  0  0
    7.2506   -3.6054    0.7764 H   0  0  0  0  0  0  0  0  0  0  0  0
    7.1971   -4.6568    2.1657 H   0  0  0  0  0  0  0  0  0  0  0  0
    6.6433   -5.9297    0.1193 H   0  0  0  0  0  0  0  0  0  0  0  0
    4.4475   -6.8762    0.8133 H   0  0  0  0  0  0  0  0  0  0  0  0
    5.4701   -6.6340    2.2057 H   0  0  0  0  0  0  0  0  0  0  0  0
    3.1720   -5.7663    2.6509 H   0  0  0  0  0  0  0  0  0  0  0  0
    5.0753   -4.5700    3.7341 H   0  0  0  0  0  0  0  0  0  0  0  0
    3.7892   -3.4487    3.3483 H   0  0  0  0  0  0  0  0  0  0  0  0
    2.3000   -3.8309    1.3434 H   0  0  0  0  0  0  0  0  0  0  0  0
    2.5227   -5.2240    0.3126 H   0  0  0  0  0  0  0  0  0  0  0  0
    4.6143   -5.3633   -1.1978 H   0  0  0  0  0  0  0  0  0  0  0  0
    5.7765   -4.0727   -1.2328 H   0  0  0  0  0  0  0  0  0  0  0  0
  1  2  2  0
  2  3  1  0
  2  7  1  0
  3  4  1  0
  3 18  1  0
  4  6  1  0
  4  5  1  0
  4 19  1  0
  5  6  1  0
  5 20  1  0
  5 21  1  0
  6 22  1  0
  6 23  1  0
  8  7  1  6
  7 24  1  0
  8 16  1  0
  8 17  1  0
  8  9  1  0
  9 10  1  0
  9 25  1  0
  9 26  1  0
 10 15  1  0
 10 11  1  0
 10 27  1  1
 11 12  1  0
 11 28  1  0
 11 29  1  0
 12 13  1  0
 12 17  1  0
 12 30  1  6
 13 14  1  0
 13 31  1  0
 13 32  1  0
 14 15  1  0
 14 16  1  0
 14 33  1  1
 15 34  1  0
 15 35  1  0
 16 36  1  0
 16 37  1  0
 17 38  1  0
 17 39  1  0
M  END
>  <i_m_ct_stereo_status>  (280) 
1

>  <s_m_source_file>  (280) 
/var/tmp/pbs.5076255.sched01/tmpnpseqx1a/1202b9de7rm.sdf

>  <i_m_source_file_index>  (280) 
8

>  <i_lp_mmshare_version>  (280) 
48012

>  <i_f3d_flags>  (280) 
0

>  <s_epik_input>  (280) 
W0NIMl0xW0NIMl1bQ0hdMVtOSF1DKD1PKVtOSF1DMjNbQ0gyXVtDQEhdNFtDSDJdW0NAQEhdKFtDSDJdMylbQ0gyXVtDQEhdKFtDSDJdNClbQ0gyXTI=

>  <s_epik_cmdline>  (280) 
J2VwaWtfcHl0aG9uJywgJy1waHQnLCAnMi4wJywgJy1waCcsICc3LjAnLCAnLXRuJywgJzgnLCAnLW1hJywgJzIwMCcsICctaW1hZScsICc8aW5maWxlLm1hZT4nLCAnLW9tYWUnLCAnPG91dGZpbGUubWFlPic=

>  <r_lp_tautomer_probability>  (280) 
1

>  <r_epik_Ionization_Penalty>  (280) 
7.95287e-05

>  <r_epik_Ionization_Penalty_Charging>  (280) 
0

>  <r_epik_Ionization_Penalty_Neutral>  (280) 
7.95287e-05

>  <r_epik_State_Penalty>  (280) 
-0

>  <r_epik_Charging_Adjusted_Penalty>  (280) 
0

>  <i_epik_Tot_Q>  (280) 
0

>  <i_epik_Tot_abs_Q>  (280) 
0

>  <s_lp_Force_Field>  (280) 
OPLS3e

>  <r_lp_Energy>  (280) 
-1.6431

>  <b_lp_Chiralities_Consistent>  (280) 
1

>  <s_lp_Variant>  (280) 
94:0-1

>  <s_i_glide_gridfile>  (280) 
pfpi4k_grid

>  <i_i_glide_lignum>  (280) 
8

>  <i_i_glide_rotatable_bonds>  (280) 
4

>  <r_i_docking_score>  (280) 
-3.02

>  <r_i_glide_ligand_efficiency>  (280) 
-0.177647

>  <r_i_glide_ligand_efficiency_sa>  (280) 
-0.45678

>  <r_i_glide_ligand_efficiency_ln>  (280) 
-0.78785

>  <r_i_glide_gscore>  (280) 
-3.02

>  <r_i_glide_lipo>  (280) 
-0.557335

>  <r_i_glide_hbond>  (280) 
0

>  <r_i_glide_metal>  (280) 
-0

>  <r_i_glide_rewards>  (280) 
-1.81134

>  <r_i_glide_evdw>  (280) 
-18.2648

>  <r_i_glide_ecoul>  (280) 
-2.05678

>  <r_i_glide_erotb>  (280) 
0.625417

>  <r_i_glide_esite>  (280) 
-0.0549868

>  <r_i_glide_emodel>  (280) 
-19.9766

>  <r_i_glide_energy>  (280) 
-20.3216

>  <r_i_glide_einternal>  (280) 
10.6719

>  <r_i_glide_intrahb_reward>  (280) 
-0

>  <i_i_glide_confnum>  (280) 
4

>  <i_i_glide_posenum>  (280) 
2

>  <r_i_glide_eff_state_penalty>  (280) 
0

>  <ligand_id>  (280) 
94

>  <original_smiles>  (280) 
O=C(NC1CC1)NC12CC3CC(CC(C3)C1)C2

>  <smiles>  (280) 
[H]N(C(=O)N([H])C12C([H])([H])C3([H])C([H])([H])C([H])(C([H])([H])C([H])(C3([H])[H])C1([H])[H])C2([H])[H])C1([H])C([H])([H])C1([H])[H]

$$$$
97:0:0
     RDKit          3D

 26 28  0  0  1  0  0  0  0  0999 V2000
    4.0966   -2.7611    3.6237 C   0  0  0  0  0  0  0  0  0  0  0  0
    5.1377   -2.7071    2.4913 C   0  0  2  0  0  0  0  0  0  0  0  0
    5.3211   -1.2577    1.9151 C   0  0  0  0  0  0  0  0  0  0  0  0
    5.4380   -0.3778    2.7672 O   0  0  0  0  0  0  0  0  0  0  0  0
    5.3916   -1.0311    0.5807 O   0  0  0  0  0  0  0  0  0  0  0  0
    5.2792   -2.0728   -0.3218 C   0  0  0  0  0  0  0  0  0  0  0  0
    4.7348   -1.9704   -1.5448 C   0  0  0  0  0  0  0  0  0  0  0  0
    4.2765   -0.8305   -2.2981 C   0  0  0  0  0  0  0  0  0  0  0  0
    3.7668   -1.0247   -3.5286 C   0  0  0  0  0  0  0  0  0  0  0  0
    3.6462   -2.3690   -4.0793 C   0  0  0  0  0  0  0  0  0  0  0  0
    4.0422   -3.4552   -3.3994 C   0  0  0  0  0  0  0  0  0  0  0  0
    4.5821   -3.2731   -2.0705 C   0  0  0  0  0  0  0  0  0  0  0  0
    5.0113   -4.1660   -1.1644 C   0  0  0  0  0  0  0  0  0  0  0  0
    5.6006   -3.4982    0.0865 C   0  0  2  0  0  0  0  0  0  0  0  0
    4.8503   -3.7198    1.3819 C   0  0  0  0  0  0  0  0  0  0  0  0
    4.2164   -4.7506    1.5883 O   0  0  0  0  0  0  0  0  0  0  0  0
    3.1044   -2.5166    3.2469 H   0  0  0  0  0  0  0  0  0  0  0  0
    4.3339   -2.0573    4.4192 H   0  0  0  0  0  0  0  0  0  0  0  0
    4.0508   -3.7496    4.0759 H   0  0  0  0  0  0  0  0  0  0  0  0
    6.0949   -2.9892    2.9139 H   0  0  0  0  0  0  0  0  0  0  0  0
    4.3615    0.1450   -1.8751 H   0  0  0  0  0  0  0  0  0  0  0  0
    3.4382   -0.1756   -4.1099 H   0  0  0  0  0  0  0  0  0  0  0  0
    3.2254   -2.4939   -5.0593 H   0  0  0  0  0  0  0  0  0  0  0  0
    3.9593   -4.4445   -3.8368 H   0  0  0  0  0  0  0  0  0  0  0  0
    5.0071   -5.2523   -1.2931 H   0  0  0  0  0  0  0  0  0  0  0  0
    6.6633   -3.6440    0.1625 H   0  0  0  0  0  0  0  0  0  0  0  0
  1  2  1  0
  1 17  1  0
  1 18  1  0
  1 19  1  0
  2 15  1  0
  2  3  1  0
  2 20  1  1
  3  4  2  0
  3  5  1  0
  5  6  1  0
  6 14  1  0
  6  7  2  0
  7 12  1  0
  7  8  1  0
  8  9  2  0
  8 21  1  0
  9 10  1  0
  9 22  1  0
 10 11  2  0
 10 23  1  0
 11 12  1  0
 11 24  1  0
 12 13  2  0
 13 14  1  0
 13 25  1  0
 14 15  1  0
 14 26  1  1
 15 16  2  0
M  END
>  <i_m_ct_stereo_status>  (281) 
1

>  <s_m_source_file>  (281) 
/var/tmp/pbs.5076255.sched01/tmpnpseqx1a/1202b9de7rm.sdf

>  <i_m_source_file_index>  (281) 
11

>  <i_lp_mmshare_version>  (281) 
48012

>  <i_f3d_flags>  (281) 
0

>  <s_epik_input>  (281) 
Tz1DKE8xKVtDQEBIXShbQ0gzXSlDKD1PKVtDQEhdMltDSF09YyhjMz1DMTIpW2NIXVtjSF1bY0hdW2NIXTM=

>  <s_epik_cmdline>  (281) 
J2VwaWtfcHl0aG9uJywgJy1waHQnLCAnMi4wJywgJy1waCcsICc3LjAnLCAnLXRuJywgJzgnLCAnLW1hJywgJzIwMCcsICctaW1hZScsICc8aW5maWxlLm1hZT4nLCAnLW9tYWUnLCAnPG91dGZpbGUubWFlPic=

>  <r_epik_Ionization_Penalty>  (281) 
0.162021

>  <r_epik_Ionization_Penalty_Charging>  (281) 
0

>  <r_epik_Ionization_Penalty_Neutral>  (281) 
0.162021

>  <r_epik_State_Penalty>  (281) 
0.151334

>  <r_epik_Charging_Adjusted_Penalty>  (281) 
0.151334

>  <i_epik_Tot_Q>  (281) 
0

>  <i_epik_Tot_abs_Q>  (281) 
0

>  <s_lp_Force_Field>  (281) 
OPLS3e

>  <r_lp_Energy>  (281) 
19.445

>  <b_lp_Chiralities_Consistent>  (281) 
1

>  <s_lp_Variant>  (281) 
97:0-1

>  <s_i_glide_gridfile>  (281) 
pfpi4k_grid

>  <i_i_glide_lignum>  (281) 
11

>  <i_i_glide_rotatable_bonds>  (281) 
0

>  <r_i_docking_score>  (281) 
-3.76752

>  <r_i_glide_ligand_efficiency>  (281) 
-0.23547

>  <r_i_glide_ligand_efficiency_sa>  (281) 
-0.593347

>  <r_i_glide_ligand_efficiency_ln>  (281) 
-0.998657

>  <r_i_glide_gscore>  (281) 
-3.76752

>  <r_i_glide_lipo>  (281) 
-0.449628

>  <r_i_glide_hbond>  (281) 
-0.0337748

>  <r_i_glide_metal>  (281) 
-0

>  <r_i_glide_rewards>  (281) 
-2.14432

>  <r_i_glide_evdw>  (281) 
-21.0689

>  <r_i_glide_ecoul>  (281) 
-0.575668

>  <r_i_glide_erotb>  (281) 
0

>  <r_i_glide_esite>  (281) 
0

>  <r_i_glide_emodel>  (281) 
-26.6251

>  <r_i_glide_energy>  (281) 
-21.6446

>  <r_i_glide_einternal>  (281) 
0

>  <r_i_glide_intrahb_reward>  (281) 
-0

>  <i_i_glide_confnum>  (281) 
1

>  <i_i_glide_posenum>  (281) 
9

>  <r_i_glide_eff_state_penalty>  (281) 
0

>  <ligand_id>  (281) 
97

>  <original_smiles>  (281) 
CC1C(=O)OC2=c3ccccc3=CC2C1=O

>  <smiles>  (281) 
[H]C1=c2c([H])c([H])c([H])c([H])c2=C2OC(=O)C([H])(C([H])([H])[H])C(=O)C12[H]

$$$$
97:0:1
     RDKit          3D

 26 28  0  0  1  0  0  0  0  0999 V2000
    2.6381   -2.1617    3.6137 C   0  0  0  0  0  0  0  0  0  0  0  0
    3.8612   -2.3471    2.7003 C   0  0  2  0  0  0  0  0  0  0  0  0
    4.3895   -0.9892    2.1271 C   0  0  0  0  0  0  0  0  0  0  0  0
    4.5158   -0.0984    2.9633 O   0  0  0  0  0  0  0  0  0  0  0  0
    4.7197   -0.8466    0.8176 O   0  0  0  0  0  0  0  0  0  0  0  0
    4.6185   -1.9097   -0.0588 C   0  0  0  0  0  0  0  0  0  0  0  0
    4.3316   -1.8112   -1.3660 C   0  0  0  0  0  0  0  0  0  0  0  0
    4.2217   -0.6755   -2.2524 C   0  0  0  0  0  0  0  0  0  0  0  0
    3.8866   -0.8687   -3.5384 C   0  0  0  0  0  0  0  0  0  0  0  0
    3.6418   -2.2045   -4.0507 C   0  0  0  0  0  0  0  0  0  0  0  0
    3.7200   -3.2874   -3.2558 C   0  0  0  0  0  0  0  0  0  0  0  0
    4.0539   -3.0982   -1.8640 C   0  0  0  0  0  0  0  0  0  0  0  0
    4.1789   -3.9867   -0.8593 C   0  0  0  0  0  0  0  0  0  0  0  0
    4.6186   -3.3386    0.4546 C   0  0  2  0  0  0  0  0  0  0  0  0
    3.6159   -3.3657    1.5857 C   0  0  0  0  0  0  0  0  0  0  0  0
    2.7746   -4.2567    1.6896 O   0  0  0  0  0  0  0  0  0  0  0  0
    1.7863   -1.7883    3.0486 H   0  0  0  0  0  0  0  0  0  0  0  0
    2.8430   -1.4543    4.4154 H   0  0  0  0  0  0  0  0  0  0  0  0
    2.3484   -3.0997    4.0843 H   0  0  0  0  0  0  0  0  0  0  0  0
    4.6651   -2.7493    3.3092 H   0  0  0  0  0  0  0  0  0  0  0  0
    4.3833    0.3080   -1.8802 H   0  0  0  0  0  0  0  0  0  0  0  0
    3.8132   -0.0075   -4.1934 H   0  0  0  0  0  0  0  0  0  0  0  0
    3.3783   -2.3190   -5.0842 H   0  0  0  0  0  0  0  0  0  0  0  0
    3.5395   -4.2592   -3.6727 H   0  0  0  0  0  0  0  0  0  0  0  0
    4.0278   -5.0574   -0.9371 H   0  0  0  0  0  0  0  0  0  0  0  0
    5.6112   -3.6524    0.7372 H   0  0  0  0  0  0  0  0  0  0  0  0
  1  2  1  0
  1 17  1  0
  1 18  1  0
  1 19  1  0
  2 15  1  0
  2  3  1  0
  2 20  1  1
  3  4  2  0
  3  5  1  0
  5  6  1  0
  6 14  1  0
  6  7  2  0
  7 12  1  0
  7  8  1  0
  8  9  2  0
  8 21  1  0
  9 10  1  0
  9 22  1  0
 10 11  2  0
 10 23  1  0
 11 12  1  0
 11 24  1  0
 12 13  2  0
 13 14  1  0
 13 25  1  0
 14 15  1  0
 14 26  1  1
 15 16  2  0
M  END
>  <i_m_ct_stereo_status>  (282) 
1

>  <s_m_source_file>  (282) 
/var/tmp/pbs.5076255.sched01/tmpnpseqx1a/1202b9de7rm.sdf

>  <i_m_source_file_index>  (282) 
11

>  <i_lp_mmshare_version>  (282) 
48012

>  <i_f3d_flags>  (282) 
0

>  <s_epik_input>  (282) 
Tz1DKE8xKVtDQEBIXShbQ0gzXSlDKD1PKVtDQEhdMltDSF09YyhjMz1DMTIpW2NIXVtjSF1bY0hdW2NIXTM=

>  <s_epik_cmdline>  (282) 
J2VwaWtfcHl0aG9uJywgJy1waHQnLCAnMi4wJywgJy1waCcsICc3LjAnLCAnLXRuJywgJzgnLCAnLW1hJywgJzIwMCcsICctaW1hZScsICc8aW5maWxlLm1hZT4nLCAnLW9tYWUnLCAnPG91dGZpbGUubWFlPic=

>  <r_epik_Ionization_Penalty>  (282) 
0.162021

>  <r_epik_Ionization_Penalty_Charging>  (282) 
0

>  <r_epik_Ionization_Penalty_Neutral>  (282) 
0.162021

>  <r_epik_State_Penalty>  (282) 
0.151334

>  <r_epik_Charging_Adjusted_Penalty>  (282) 
0.151334

>  <i_epik_Tot_Q>  (282) 
0

>  <i_epik_Tot_abs_Q>  (282) 
0

>  <s_lp_Force_Field>  (282) 
OPLS3e

>  <r_lp_Energy>  (282) 
19.445

>  <b_lp_Chiralities_Consistent>  (282) 
1

>  <s_lp_Variant>  (282) 
97:0-1

>  <s_i_glide_gridfile>  (282) 
pfpi4k_grid

>  <i_i_glide_lignum>  (282) 
11

>  <i_i_glide_rotatable_bonds>  (282) 
0

>  <r_i_docking_score>  (282) 
-3.34064

>  <r_i_glide_ligand_efficiency>  (282) 
-0.20879

>  <r_i_glide_ligand_efficiency_sa>  (282) 
-0.526118

>  <r_i_glide_ligand_efficiency_ln>  (282) 
-0.885504

>  <r_i_glide_gscore>  (282) 
-3.34064

>  <r_i_glide_lipo>  (282) 
-0.356087

>  <r_i_glide_hbond>  (282) 
0

>  <r_i_glide_metal>  (282) 
-0

>  <r_i_glide_rewards>  (282) 
-2.02309

>  <r_i_glide_evdw>  (282) 
-18.2329

>  <r_i_glide_ecoul>  (282) 
-0.332124

>  <r_i_glide_erotb>  (282) 
0

>  <r_i_glide_esite>  (282) 
0

>  <r_i_glide_emodel>  (282) 
-22.9619

>  <r_i_glide_energy>  (282) 
-18.565

>  <r_i_glide_einternal>  (282) 
0

>  <r_i_glide_intrahb_reward>  (282) 
-0

>  <i_i_glide_confnum>  (282) 
1

>  <i_i_glide_posenum>  (282) 
14

>  <r_i_glide_eff_state_penalty>  (282) 
0

>  <ligand_id>  (282) 
97

>  <original_smiles>  (282) 
CC1C(=O)OC2=c3ccccc3=CC2C1=O

>  <smiles>  (282) 
[H]C1=c2c([H])c([H])c([H])c([H])c2=C2OC(=O)C([H])(C([H])([H])[H])C(=O)C12[H]

$$$$
97:0:2
     RDKit          3D

 26 28  0  0  1  0  0  0  0  0999 V2000
    2.2840    1.0169    2.4082 C   0  0  0  0  0  0  0  0  0  0  0  0
    1.2721    2.1776    2.5007 C   0  0  2  0  0  0  0  0  0  0  0  0
    1.8526    3.3878    3.2841 C   0  0  0  0  0  0  0  0  0  0  0  0
    2.9911    3.7710    3.0358 O   0  0  0  0  0  0  0  0  0  0  0  0
    1.0986    4.0162    4.2411 O   0  0  0  0  0  0  0  0  0  0  0  0
   -0.1792    3.6294    4.5291 C   0  0  0  0  0  0  0  0  0  0  0  0
   -0.7769    3.7137    5.7229 C   0  0  0  0  0  0  0  0  0  0  0  0
   -0.3613    4.3448    6.9627 C   0  0  0  0  0  0  0  0  0  0  0  0
   -1.1896    4.2809    8.0329 C   0  0  0  0  0  0  0  0  0  0  0  0
   -2.4661    3.5664    7.9669 C   0  0  0  0  0  0  0  0  0  0  0  0
   -2.8571    2.9258    6.8422 C   0  0  0  0  0  0  0  0  0  0  0  0
   -2.0015    2.9802    5.6685 C   0  0  0  0  0  0  0  0  0  0  0  0
   -2.1469    2.4477    4.4401 C   0  0  0  0  0  0  0  0  0  0  0  0
   -0.9968    2.8538    3.5214 C   0  0  2  0  0  0  0  0  0  0  0  0
   -0.1044    1.7334    3.0066 C   0  0  0  0  0  0  0  0  0  0  0  0
   -0.4928    0.5652    2.9328 O   0  0  0  0  0  0  0  0  0  0  0  0
    2.4827    0.5839    3.3885 H   0  0  0  0  0  0  0  0  0  0  0  0
    3.2376    1.3440    1.9920 H   0  0  0  0  0  0  0  0  0  0  0  0
    1.9151    0.2237    1.7576 H   0  0  0  0  0  0  0  0  0  0  0  0
    1.1144    2.5412    1.4922 H   0  0  0  0  0  0  0  0  0  0  0  0
    0.5781    4.8745    7.0109 H   0  0  0  0  0  0  0  0  0  0  0  0
   -0.9058    4.7742    8.9535 H   0  0  0  0  0  0  0  0  0  0  0  0
   -3.1047    3.5573    8.8366 H   0  0  0  0  0  0  0  0  0  0  0  0
   -3.8030    2.4114    6.8176 H   0  0  0  0  0  0  0  0  0  0  0  0
   -2.9669    1.8461    4.0778 H   0  0  0  0  0  0  0  0  0  0  0  0
   -1.3358    3.4939    2.7048 H   0  0  0  0  0  0  0  0  0  0  0  0
  1  2  1  0
  1 17  1  0
  1 18  1  0
  1 19  1  0
  2 15  1  0
  2  3  1  0
  2 20  1  6
  3  4  2  0
  3  5  1  0
  5  6  1  0
  6 14  1  0
  6  7  2  0
  7 12  1  0
  7  8  1  0
  8  9  2  0
  8 21  1  0
  9 10  1  0
  9 22  1  0
 10 11  2  0
 10 23  1  0
 11 12  1  0
 11 24  1  0
 12 13  2  0
 13 14  1  0
 13 25  1  0
 14 15  1  0
 14 26  1  6
 15 16  2  0
M  END
>  <i_m_ct_stereo_status>  (283) 
1

>  <s_m_source_file>  (283) 
/var/tmp/pbs.5076255.sched01/tmpnpseqx1a/1202b9de7rm.sdf

>  <i_m_source_file_index>  (283) 
11

>  <i_lp_mmshare_version>  (283) 
48012

>  <i_f3d_flags>  (283) 
0

>  <s_epik_input>  (283) 
Tz1DKE8xKVtDQEBIXShbQ0gzXSlDKD1PKVtDQEhdMltDSF09YyhjMz1DMTIpW2NIXVtjSF1bY0hdW2NIXTM=

>  <s_epik_cmdline>  (283) 
J2VwaWtfcHl0aG9uJywgJy1waHQnLCAnMi4wJywgJy1waCcsICc3LjAnLCAnLXRuJywgJzgnLCAnLW1hJywgJzIwMCcsICctaW1hZScsICc8aW5maWxlLm1hZT4nLCAnLW9tYWUnLCAnPG91dGZpbGUubWFlPic=

>  <r_epik_Ionization_Penalty>  (283) 
0.162021

>  <r_epik_Ionization_Penalty_Charging>  (283) 
0

>  <r_epik_Ionization_Penalty_Neutral>  (283) 
0.162021

>  <r_epik_State_Penalty>  (283) 
0.151334

>  <r_epik_Charging_Adjusted_Penalty>  (283) 
0.151334

>  <i_epik_Tot_Q>  (283) 
0

>  <i_epik_Tot_abs_Q>  (283) 
0

>  <s_lp_Force_Field>  (283) 
OPLS3e

>  <r_lp_Energy>  (283) 
19.445

>  <b_lp_Chiralities_Consistent>  (283) 
1

>  <s_lp_Variant>  (283) 
97:0-1

>  <s_i_glide_gridfile>  (283) 
pfpi4k_grid

>  <i_i_glide_lignum>  (283) 
11

>  <i_i_glide_rotatable_bonds>  (283) 
0

>  <r_i_docking_score>  (283) 
-3.31727

>  <r_i_glide_ligand_efficiency>  (283) 
-0.20733

>  <r_i_glide_ligand_efficiency_sa>  (283) 
-0.522438

>  <r_i_glide_ligand_efficiency_ln>  (283) 
-0.87931

>  <r_i_glide_gscore>  (283) 
-3.31727

>  <r_i_glide_lipo>  (283) 
-0.302805

>  <r_i_glide_hbond>  (283) 
0

>  <r_i_glide_metal>  (283) 
-0

>  <r_i_glide_rewards>  (283) 
-1.94852

>  <r_i_glide_evdw>  (283) 
-19.0914

>  <r_i_glide_ecoul>  (283) 
-0.0504181

>  <r_i_glide_erotb>  (283) 
0

>  <r_i_glide_esite>  (283) 
-0.103812

>  <r_i_glide_emodel>  (283) 
-23.5284

>  <r_i_glide_energy>  (283) 
-19.1419

>  <r_i_glide_einternal>  (283) 
0

>  <r_i_glide_intrahb_reward>  (283) 
-0

>  <i_i_glide_confnum>  (283) 
2

>  <i_i_glide_posenum>  (283) 
1

>  <r_i_glide_eff_state_penalty>  (283) 
0

>  <ligand_id>  (283) 
97

>  <original_smiles>  (283) 
CC1C(=O)OC2=c3ccccc3=CC2C1=O

>  <smiles>  (283) 
[H]C1=c2c([H])c([H])c([H])c([H])c2=C2OC(=O)C([H])(C([H])([H])[H])C(=O)C12[H]

$$$$
97:1:0
     RDKit          3D

 25 27  0  0  1  0  0  0  0  0999 V2000
    5.0374   -3.3941    3.3774 C   0  0  0  0  0  0  0  0  0  0  0  0
    5.2492   -2.9019    1.9490 C   0  0  0  0  0  0  0  0  0  0  0  0
    5.6185   -1.5859    1.6674 C   0  0  0  0  0  0  0  0  0  0  0  0
    5.8350   -0.6455    2.4618 O   0  0  0  0  0  0  0  0  0  0  0  0
    5.7541   -1.1732    0.3514 O   0  0  0  0  0  0  0  0  0  0  0  0
    5.4308   -2.0394   -0.6616 C   0  0  0  0  0  0  0  0  0  0  0  0
    4.7723   -1.7445   -1.7905 C   0  0  0  0  0  0  0  0  0  0  0  0
    4.3746   -0.4879   -2.3610 C   0  0  0  0  0  0  0  0  0  0  0  0
    3.6784   -0.4627   -3.5085 C   0  0  0  0  0  0  0  0  0  0  0  0
    3.3091   -1.7020   -4.1677 C   0  0  0  0  0  0  0  0  0  0  0  0
    3.6170   -2.9156   -3.6536 C   0  0  0  0  0  0  0  0  0  0  0  0
    4.3774   -2.9599   -2.4146 C   0  0  0  0  0  0  0  0  0  0  0  0
    4.8000   -3.9927   -1.6749 C   0  0  0  0  0  0  0  0  0  0  0  0
    5.6137   -3.5282   -0.4698 C   0  0  2  0  0  0  0  0  0  0  0  0
    5.0784   -3.9207    0.8991 C   0  0  0  0  0  0  0  0  0  0  0  0
    4.6080   -5.0433    1.0824 O   0  0  0  0  0  0  0  0  0  0  0  0
    4.0503   -3.8382    3.4889 H   0  0  0  0  0  0  0  0  0  0  0  0
    5.1116   -2.5755    4.0957 H   0  0  0  0  0  0  0  0  0  0  0  0
    5.7814   -4.1398    3.6651 H   0  0  0  0  0  0  0  0  0  0  0  0
    4.6071    0.4362   -1.9084 H   0  0  0  0  0  0  0  0  0  0  0  0
    3.3601    0.4775   -3.9337 H   0  0  0  0  0  0  0  0  0  0  0  0
    2.7704   -1.5763   -5.0854 H   0  0  0  0  0  0  0  0  0  0  0  0
    3.3213   -3.8262   -4.1547 H   0  0  0  0  0  0  0  0  0  0  0  0
    4.6205   -5.0330   -1.9002 H   0  0  0  0  0  0  0  0  0  0  0  0
    6.6589   -3.8197   -0.5904 H   0  0  0  0  0  0  0  0  0  0  0  0
  1  2  1  0
  1 17  1  0
  1 18  1  0
  1 19  1  0
  2 15  1  0
  2  3  2  0
  3  4  1  0
  3  5  1  0
  5  6  1  0
  6 14  1  0
  6  7  2  0
  7 12  1  0
  7  8  1  0
  8  9  2  0
  8 20  1  0
  9 10  1  0
  9 21  1  0
 10 11  2  0
 10 22  1  0
 11 12  1  0
 11 23  1  0
 12 13  2  0
 13 14  1  0
 13 24  1  0
 14 15  1  0
 14 25  1  6
 15 16  2  0
M  CHG  1   4  -1
M  END
>  <i_m_ct_stereo_status>  (284) 
1

>  <s_m_source_file>  (284) 
/var/tmp/pbs.5076255.sched01/tmpnpseqx1a/1202b9de7rm.sdf

>  <i_m_source_file_index>  (284) 
12

>  <i_lp_mmshare_version>  (284) 
48012

>  <i_f3d_flags>  (284) 
0

>  <s_epik_input>  (284) 
Tz1DKE8xKVtDQEBIXShbQ0gzXSlDKD1PKVtDQEhdMltDSF09YyhjMz1DMTIpW2NIXVtjSF1bY0hdW2NIXTM=

>  <s_epik_cmdline>  (284) 
J2VwaWtfcHl0aG9uJywgJy1waHQnLCAnMi4wJywgJy1waCcsICc3LjAnLCAnLXRuJywgJzgnLCAnLW1hJywgJzIwMCcsICctaW1hZScsICc8aW5maWxlLm1hZT4nLCAnLW9tYWUnLCAnPG91dGZpbGUubWFlPic=

>  <r_epik_Ionization_Penalty>  (284) 
0.847437

>  <r_epik_Ionization_Penalty_Charging>  (284) 
3.10134e-05

>  <r_epik_Ionization_Penalty_Neutral>  (284) 
0.847406

>  <r_epik_State_Penalty>  (284) 
0.882703

>  <r_epik_Charging_Adjusted_Penalty>  (284) 
0.882734

>  <i_epik_Tot_Q>  (284) 
-1

>  <i_epik_Tot_abs_Q>  (284) 
1

>  <s_lp_Force_Field>  (284) 
OPLS3e

>  <r_lp_Energy>  (284) 
15.1759

>  <b_lp_Chiralities_Consistent>  (284) 
1

>  <s_lp_Variant>  (284) 
97:0-2

>  <s_i_glide_gridfile>  (284) 
pfpi4k_grid

>  <i_i_glide_lignum>  (284) 
12

>  <i_i_glide_rotatable_bonds>  (284) 
0

>  <r_i_docking_score>  (284) 
-3.61547

>  <r_i_glide_ligand_efficiency>  (284) 
-0.225967

>  <r_i_glide_ligand_efficiency_sa>  (284) 
-0.5694

>  <r_i_glide_ligand_efficiency_ln>  (284) 
-0.958351

>  <r_i_glide_gscore>  (284) 
-3.61547

>  <r_i_glide_lipo>  (284) 
-0.771079

>  <r_i_glide_hbond>  (284) 
0

>  <r_i_glide_metal>  (284) 
-0

>  <r_i_glide_rewards>  (284) 
-2.00778

>  <r_i_glide_evdw>  (284) 
-14.5844

>  <r_i_glide_ecoul>  (284) 
-0.715922

>  <r_i_glide_erotb>  (284) 
0

>  <r_i_glide_esite>  (284) 
0

>  <r_i_glide_emodel>  (284) 
-21.7067

>  <r_i_glide_energy>  (284) 
-15.3003

>  <r_i_glide_einternal>  (284) 
0

>  <r_i_glide_intrahb_reward>  (284) 
-0

>  <i_i_glide_confnum>  (284) 
2

>  <i_i_glide_posenum>  (284) 
4

>  <r_i_glide_eff_state_penalty>  (284) 
0

>  <ligand_id>  (284) 
97

>  <original_smiles>  (284) 
CC1C(=O)OC2=c3ccccc3=CC2C1=O

>  <smiles>  (284) 
[H]C1=c2c([H])c([H])c([H])c([H])c2=C2OC([O-])=C(C([H])([H])[H])C(=O)C12[H]

$$$$
97:1:1
     RDKit          3D

 25 27  0  0  1  0  0  0  0  0999 V2000
   -1.5748    4.2328    7.7717 C   0  0  0  0  0  0  0  0  0  0  0  0
   -1.5001    3.0324    6.8309 C   0  0  0  0  0  0  0  0  0  0  0  0
   -1.4742    1.7336    7.3243 C   0  0  0  0  0  0  0  0  0  0  0  0
   -1.5052    1.3510    8.5107 O   0  0  0  0  0  0  0  0  0  0  0  0
   -1.3771    0.6611    6.4610 O   0  0  0  0  0  0  0  0  0  0  0  0
   -1.1677    0.8931    5.1256 C   0  0  0  0  0  0  0  0  0  0  0  0
   -0.3246    0.2312    4.3213 C   0  0  0  0  0  0  0  0  0  0  0  0
    0.4544   -0.9776    4.5174 C   0  0  0  0  0  0  0  0  0  0  0  0
    1.2626   -1.3972    3.5138 C   0  0  0  0  0  0  0  0  0  0  0  0
    1.3858   -0.6419    2.2641 C   0  0  0  0  0  0  0  0  0  0  0  0
    0.7067    0.5121    2.0693 C   0  0  0  0  0  0  0  0  0  0  0  0
   -0.1742    0.9918    3.1171 C   0  0  0  0  0  0  0  0  0  0  0  0
   -0.9270    2.1012    3.1798 C   0  0  0  0  0  0  0  0  0  0  0  0
   -1.7334    2.1432    4.4766 C   0  0  2  0  0  0  0  0  0  0  0  0
   -1.4800    3.3379    5.3872 C   0  0  0  0  0  0  0  0  0  0  0  0
   -1.3566    4.4670    4.9058 O   0  0  0  0  0  0  0  0  0  0  0  0
   -0.7541    4.9235    7.5765 H   0  0  0  0  0  0  0  0  0  0  0  0
   -1.5101    3.9343    8.8167 H   0  0  0  0  0  0  0  0  0  0  0  0
   -2.5207    4.7698    7.6822 H   0  0  0  0  0  0  0  0  0  0  0  0
    0.3738   -1.5351    5.4353 H   0  0  0  0  0  0  0  0  0  0  0  0
    1.8367   -2.3036    3.6332 H   0  0  0  0  0  0  0  0  0  0  0  0
    2.0051   -1.0278    1.4674 H   0  0  0  0  0  0  0  0  0  0  0  0
    0.7773    1.0360    1.1253 H   0  0  0  0  0  0  0  0  0  0  0  0
   -0.9856    2.8602    2.4142 H   0  0  0  0  0  0  0  0  0  0  0  0
   -2.7970    2.0345    4.2614 H   0  0  0  0  0  0  0  0  0  0  0  0
  1  2  1  0
  1 17  1  0
  1 18  1  0
  1 19  1  0
  2 15  1  0
  2  3  2  0
  3  4  1  0
  3  5  1  0
  5  6  1  0
  6 14  1  0
  6  7  2  0
  7 12  1  0
  7  8  1  0
  8  9  2  0
  8 20  1  0
  9 10  1  0
  9 21  1  0
 10 11  2  0
 10 22  1  0
 11 12  1  0
 11 23  1  0
 12 13  2  0
 13 14  1  0
 13 24  1  0
 14 15  1  0
 14 25  1  6
 15 16  2  0
M  CHG  1   4  -1
M  END
>  <i_m_ct_stereo_status>  (285) 
1

>  <s_m_source_file>  (285) 
/var/tmp/pbs.5076255.sched01/tmpnpseqx1a/1202b9de7rm.sdf

>  <i_m_source_file_index>  (285) 
12

>  <i_lp_mmshare_version>  (285) 
48012

>  <i_f3d_flags>  (285) 
0

>  <s_epik_input>  (285) 
Tz1DKE8xKVtDQEBIXShbQ0gzXSlDKD1PKVtDQEhdMltDSF09YyhjMz1DMTIpW2NIXVtjSF1bY0hdW2NIXTM=

>  <s_epik_cmdline>  (285) 
J2VwaWtfcHl0aG9uJywgJy1waHQnLCAnMi4wJywgJy1waCcsICc3LjAnLCAnLXRuJywgJzgnLCAnLW1hJywgJzIwMCcsICctaW1hZScsICc8aW5maWxlLm1hZT4nLCAnLW9tYWUnLCAnPG91dGZpbGUubWFlPic=

>  <r_epik_Ionization_Penalty>  (285) 
0.847437

>  <r_epik_Ionization_Penalty_Charging>  (285) 
3.10134e-05

>  <r_epik_Ionization_Penalty_Neutral>  (285) 
0.847406

>  <r_epik_State_Penalty>  (285) 
0.882703

>  <r_epik_Charging_Adjusted_Penalty>  (285) 
0.882734

>  <i_epik_Tot_Q>  (285) 
-1

>  <i_epik_Tot_abs_Q>  (285) 
1

>  <s_lp_Force_Field>  (285) 
OPLS3e

>  <r_lp_Energy>  (285) 
15.1759

>  <b_lp_Chiralities_Consistent>  (285) 
1

>  <s_lp_Variant>  (285) 
97:0-2

>  <s_i_glide_gridfile>  (285) 
pfpi4k_grid

>  <i_i_glide_lignum>  (285) 
12

>  <i_i_glide_rotatable_bonds>  (285) 
0

>  <r_i_docking_score>  (285) 
-3.28711

>  <r_i_glide_ligand_efficiency>  (285) 
-0.205445

>  <r_i_glide_ligand_efficiency_sa>  (285) 
-0.517688

>  <r_i_glide_ligand_efficiency_ln>  (285) 
-0.871315

>  <r_i_glide_gscore>  (285) 
-3.28711

>  <r_i_glide_lipo>  (285) 
-0.035653

>  <r_i_glide_hbond>  (285) 
-0.118363

>  <r_i_glide_metal>  (285) 
-0

>  <r_i_glide_rewards>  (285) 
-1.95539

>  <r_i_glide_evdw>  (285) 
-16.1182

>  <r_i_glide_ecoul>  (285) 
-2.4137

>  <r_i_glide_erotb>  (285) 
0

>  <r_i_glide_esite>  (285) 
-0.00973802

>  <r_i_glide_emodel>  (285) 
-24.3578

>  <r_i_glide_energy>  (285) 
-18.5319

>  <r_i_glide_einternal>  (285) 
0

>  <r_i_glide_intrahb_reward>  (285) 
-0

>  <i_i_glide_confnum>  (285) 
2

>  <i_i_glide_posenum>  (285) 
8

>  <r_i_glide_eff_state_penalty>  (285) 
0

>  <ligand_id>  (285) 
97

>  <original_smiles>  (285) 
CC1C(=O)OC2=c3ccccc3=CC2C1=O

>  <smiles>  (285) 
[H]C1=c2c([H])c([H])c([H])c([H])c2=C2OC([O-])=C(C([H])([H])[H])C(=O)C12[H]

$$$$
97:1:2
     RDKit          3D

 25 27  0  0  1  0  0  0  0  0999 V2000
    3.4136   -1.8070    4.2487 C   0  0  0  0  0  0  0  0  0  0  0  0
    3.8905   -1.9965    2.8108 C   0  0  0  0  0  0  0  0  0  0  0  0
    4.9180   -1.2244    2.2654 C   0  0  0  0  0  0  0  0  0  0  0  0
    5.6035   -0.3260    2.8071 O   0  0  0  0  0  0  0  0  0  0  0  0
    5.2718   -1.3941    0.9402 O   0  0  0  0  0  0  0  0  0  0  0  0
    4.5640   -2.2652    0.1490 C   0  0  0  0  0  0  0  0  0  0  0  0
    4.2071   -2.0715   -1.1244 C   0  0  0  0  0  0  0  0  0  0  0  0
    4.5745   -1.0466   -2.0828 C   0  0  0  0  0  0  0  0  0  0  0  0
    4.0146   -1.0794   -3.3130 C   0  0  0  0  0  0  0  0  0  0  0  0
    3.0376   -2.1094   -3.6821 C   0  0  0  0  0  0  0  0  0  0  0  0
    2.6462   -3.0561   -2.8029 C   0  0  0  0  0  0  0  0  0  0  0  0
    3.2268   -3.0560   -1.4718 C   0  0  0  0  0  0  0  0  0  0  0  0
    2.9981   -3.8519   -0.4114 C   0  0  0  0  0  0  0  0  0  0  0  0
    3.9056   -3.4833    0.7654 C   0  0  2  0  0  0  0  0  0  0  0  0
    3.2163   -3.0696    2.0552 C   0  0  0  0  0  0  0  0  0  0  0  0
    2.2152   -3.6738    2.4438 O   0  0  0  0  0  0  0  0  0  0  0  0
    2.3401   -1.6202    4.2711 H   0  0  0  0  0  0  0  0  0  0  0  0
    3.8991   -0.9494    4.7190 H   0  0  0  0  0  0  0  0  0  0  0  0
    3.6226   -2.6803    4.8697 H   0  0  0  0  0  0  0  0  0  0  0  0
    5.2755   -0.2766   -1.8111 H   0  0  0  0  0  0  0  0  0  0  0  0
    4.2667   -0.3175   -4.0358 H   0  0  0  0  0  0  0  0  0  0  0  0
    2.6187   -2.1003   -4.6764 H   0  0  0  0  0  0  0  0  0  0  0  0
    1.9272   -3.8127   -3.0896 H   0  0  0  0  0  0  0  0  0  0  0  0
    2.2959   -4.6704   -0.3931 H   0  0  0  0  0  0  0  0  0  0  0  0
    4.6301   -4.2800    0.9437 H   0  0  0  0  0  0  0  0  0  0  0  0
  1  2  1  0
  1 17  1  0
  1 18  1  0
  1 19  1  0
  2 15  1  0
  2  3  2  0
  3  4  1  0
  3  5  1  0
  5  6  1  0
  6 14  1  0
  6  7  2  0
  7 12  1  0
  7  8  1  0
  8  9  2  0
  8 20  1  0
  9 10  1  0
  9 21  1  0
 10 11  2  0
 10 22  1  0
 11 12  1  0
 11 23  1  0
 12 13  2  0
 13 14  1  0
 13 24  1  0
 14 15  1  0
 14 25  1  1
 15 16  2  0
M  CHG  1   4  -1
M  END
>  <i_m_ct_stereo_status>  (286) 
1

>  <s_m_source_file>  (286) 
/var/tmp/pbs.5076255.sched01/tmpnpseqx1a/1202b9de7rm.sdf

>  <i_m_source_file_index>  (286) 
12

>  <i_lp_mmshare_version>  (286) 
48012

>  <i_f3d_flags>  (286) 
0

>  <s_epik_input>  (286) 
Tz1DKE8xKVtDQEBIXShbQ0gzXSlDKD1PKVtDQEhdMltDSF09YyhjMz1DMTIpW2NIXVtjSF1bY0hdW2NIXTM=

>  <s_epik_cmdline>  (286) 
J2VwaWtfcHl0aG9uJywgJy1waHQnLCAnMi4wJywgJy1waCcsICc3LjAnLCAnLXRuJywgJzgnLCAnLW1hJywgJzIwMCcsICctaW1hZScsICc8aW5maWxlLm1hZT4nLCAnLW9tYWUnLCAnPG91dGZpbGUubWFlPic=

>  <r_epik_Ionization_Penalty>  (286) 
0.847437

>  <r_epik_Ionization_Penalty_Charging>  (286) 
3.10134e-05

>  <r_epik_Ionization_Penalty_Neutral>  (286) 
0.847406

>  <r_epik_State_Penalty>  (286) 
0.882703

>  <r_epik_Charging_Adjusted_Penalty>  (286) 
0.882734

>  <i_epik_Tot_Q>  (286) 
-1

>  <i_epik_Tot_abs_Q>  (286) 
1

>  <s_lp_Force_Field>  (286) 
OPLS3e

>  <r_lp_Energy>  (286) 
15.1759

>  <b_lp_Chiralities_Consistent>  (286) 
1

>  <s_lp_Variant>  (286) 
97:0-2

>  <s_i_glide_gridfile>  (286) 
pfpi4k_grid

>  <i_i_glide_lignum>  (286) 
12

>  <i_i_glide_rotatable_bonds>  (286) 
0

>  <r_i_docking_score>  (286) 
-3.18666

>  <r_i_glide_ligand_efficiency>  (286) 
-0.199166

>  <r_i_glide_ligand_efficiency_sa>  (286) 
-0.501867

>  <r_i_glide_ligand_efficiency_ln>  (286) 
-0.844687

>  <r_i_glide_gscore>  (286) 
-3.18666

>  <r_i_glide_lipo>  (286) 
-0.518024

>  <r_i_glide_hbond>  (286) 
-0.0351157

>  <r_i_glide_metal>  (286) 
-0

>  <r_i_glide_rewards>  (286) 
-1.95539

>  <r_i_glide_evdw>  (286) 
-20.271

>  <r_i_glide_ecoul>  (286) 
2.24324

>  <r_i_glide_erotb>  (286) 
0

>  <r_i_glide_esite>  (286) 
-0.00105804

>  <r_i_glide_emodel>  (286) 
-23.7507

>  <r_i_glide_energy>  (286) 
-18.0278

>  <r_i_glide_einternal>  (286) 
0

>  <r_i_glide_intrahb_reward>  (286) 
-0

>  <i_i_glide_confnum>  (286) 
1

>  <i_i_glide_posenum>  (286) 
16

>  <r_i_glide_eff_state_penalty>  (286) 
0

>  <ligand_id>  (286) 
97

>  <original_smiles>  (286) 
CC1C(=O)OC2=c3ccccc3=CC2C1=O

>  <smiles>  (286) 
[H]C1=c2c([H])c([H])c([H])c([H])c2=C2OC([O-])=C(C([H])([H])[H])C(=O)C12[H]

$$$$
99:0:0
     RDKit          3D

 81 88  0  0  1  0  0  0  0  0999 V2000
    0.7521    1.0362    4.7069 C   0  0  0  0  0  0  0  0  0  0  0  0
    1.8850    0.0936    4.2434 C   0  0  0  0  0  0  0  0  0  0  0  0
    3.2272    0.7162    4.6998 C   0  0  0  0  0  0  0  0  0  0  0  0
    1.7317   -1.3295    4.8666 C   0  0  0  0  0  0  0  0  0  0  0  0
    1.6277   -2.3229    3.6920 C   0  0  1  0  0  0  0  0  0  0  0  0
    2.4240   -1.5673    2.5788 C   0  0  1  0  0  0  0  0  0  0  0  0
    2.3628   -2.1124    1.2469 O   0  0  0  0  0  0  0  0  0  0  0  0
    3.5799   -2.6239    0.6606 C   0  0  0  0  0  0  0  0  0  0  0  0
    4.1575   -3.7684    1.4818 C   0  0  0  0  0  0  0  0  0  0  0  0
    4.8491   -3.4729    2.6143 C   0  0  0  0  0  0  0  0  0  0  0  0
    4.4448   -4.1630    3.9551 C   0  0  1  0  0  0  0  0  0  0  0  0
    3.1264   -3.9773    3.6262 O   0  0  0  0  0  0  0  0  0  0  0  0
    2.2184   -4.5799    2.6430 C   0  0  2  0  0  0  0  0  0  0  0  0
    3.3873   -5.0719    1.6665 C   0  0  1  0  0  0  0  0  0  0  0  0
    2.5147   -5.7020    0.5377 C   0  0  0  0  0  0  0  0  0  0  0  0
    1.5999   -6.7317    1.0387 O   0  0  0  0  0  0  0  0  0  0  0  0
    2.1510   -7.7187    1.9430 C   0  0  2  0  0  0  0  0  0  0  0  0
    1.5195   -9.0800    2.0830 C   0  0  0  0  0  0  0  0  0  0  0  0
    2.2703   -9.1436    3.4472 C   0  0  2  0  0  0  0  0  0  0  0  0
    1.7754  -10.1388    4.5436 C   0  0  0  0  0  0  0  0  0  0  0  0
    1.1528  -11.3894    3.8809 C   0  0  0  0  0  0  0  0  0  0  0  0
    2.9700  -10.6474    5.3819 C   0  0  0  0  0  0  0  0  0  0  0  0
    0.6860   -9.5085    5.4546 C   0  0  1  0  0  0  0  0  0  0  0  0
    1.2150   -8.8868    6.6143 O   0  0  0  0  0  0  0  0  0  0  0  0
   -0.1499   -8.4829    4.6965 C   0  0  0  0  0  0  0  0  0  0  0  0
    0.6951   -7.2961    4.1856 C   0  0  0  0  0  0  0  0  0  0  0  0
    2.0859   -7.5632    3.5377 C   0  0  2  0  0  0  0  0  0  0  0  0
    3.2472   -6.5963    4.1983 C   0  0  1  0  0  0  0  0  0  0  0  0
    3.5091   -7.1764    5.4629 O   0  0  0  0  0  0  0  0  0  0  0  0
    4.5416   -6.8571    3.3957 C   0  0  0  0  0  0  0  0  0  0  0  0
    4.5658   -6.1417    2.0216 C   0  0  1  0  0  0  0  0  0  0  0  0
    5.0624   -6.9339    0.9506 O   0  0  0  0  0  0  0  0  0  0  0  0
    3.1725   -4.9278    4.5060 C   0  0  2  0  0  0  0  0  0  0  0  0
    1.9073   -3.9656    3.9882 C   0  0  1  0  0  0  0  0  0  0  0  0
    0.6157   -4.3058    4.7928 C   0  0  0  0  0  0  0  0  0  0  0  0
    1.9220   -0.1237    2.6923 C   0  0  1  0  0  0  0  0  0  0  0  0
    0.6383   -0.0255    2.0939 O   0  0  0  0  0  0  0  0  0  0  0  0
    0.8020    1.2031    5.7836 H   0  0  0  0  0  0  0  0  0  0  0  0
   -0.2333    0.6237    4.4893 H   0  0  0  0  0  0  0  0  0  0  0  0
    0.8194    2.0111    4.2203 H   0  0  0  0  0  0  0  0  0  0  0  0
    4.0813    0.0964    4.4217 H   0  0  0  0  0  0  0  0  0  0  0  0
    3.2580    0.8442    5.7833 H   0  0  0  0  0  0  0  0  0  0  0  0
    3.3801    1.7004    4.2490 H   0  0  0  0  0  0  0  0  0  0  0  0
    2.5936   -1.5782    5.4881 H   0  0  0  0  0  0  0  0  0  0  0  0
    0.8580   -1.3836    5.5145 H   0  0  0  0  0  0  0  0  0  0  0  0
    0.5978   -2.2837    3.3313 H   0  0  0  0  0  0  0  0  0  0  0  0
    3.4582   -1.4736    2.8782 H   0  0  0  0  0  0  0  0  0  0  0  0
    3.3675   -2.9728   -0.3519 H   0  0  0  0  0  0  0  0  0  0  0  0
    4.3101   -1.8179    0.5760 H   0  0  0  0  0  0  0  0  0  0  0  0
    5.3056   -2.5045    2.7377 H   0  0  0  0  0  0  0  0  0  0  0  0
    4.7527   -3.4711    4.7368 H   0  0  0  0  0  0  0  0  0  0  0  0
    1.4901   -5.3450    2.7895 H   0  0  0  0  0  0  0  0  0  0  0  0
    1.9012   -4.9298    0.0717 H   0  0  0  0  0  0  0  0  0  0  0  0
    3.1225   -6.1018   -0.2715 H   0  0  0  0  0  0  0  0  0  0  0  0
    3.1019   -8.0325    1.5333 H   0  0  0  0  0  0  0  0  0  0  0  0
    0.4317   -9.0543    2.1063 H   0  0  0  0  0  0  0  0  0  0  0  0
    1.8742   -9.8127    1.3576 H   0  0  0  0  0  0  0  0  0  0  0  0
    3.3010   -9.4078    3.2120 H   0  0  0  0  0  0  0  0  0  0  0  0
    0.8881  -12.1438    4.6264 H   0  0  0  0  0  0  0  0  0  0  0  0
    1.8386  -11.8584    3.1779 H   0  0  0  0  0  0  0  0  0  0  0  0
    0.2346  -11.1514    3.3447 H   0  0  0  0  0  0  0  0  0  0  0  0
    2.6256  -11.3081    6.1753 H   0  0  0  0  0  0  0  0  0  0  0  0
    3.5287   -9.8371    5.8471 H   0  0  0  0  0  0  0  0  0  0  0  0
    3.6681  -11.2238    4.7779 H   0  0  0  0  0  0  0  0  0  0  0  0
    0.0258  -10.2913    5.8327 H   0  0  0  0  0  0  0  0  0  0  0  0
    1.5400   -9.5784    7.1743 H   0  0  0  0  0  0  0  0  0  0  0  0
   -0.6774   -8.9849    3.8882 H   0  0  0  0  0  0  0  0  0  0  0  0
   -0.9441   -8.1076    5.3385 H   0  0  0  0  0  0  0  0  0  0  0  0
    0.0505   -6.7504    3.5030 H   0  0  0  0  0  0  0  0  0  0  0  0
    0.8571   -6.7400    5.0919 H   0  0  0  0  0  0  0  0  0  0  0  0
    2.6930   -7.2724    5.9330 H   0  0  0  0  0  0  0  0  0  0  0  0
    5.4006   -6.5280    3.9829 H   0  0  0  0  0  0  0  0  0  0  0  0
    4.7497   -7.9164    3.2656 H   0  0  0  0  0  0  0  0  0  0  0  0
    5.5321   -5.6472    2.0816 H   0  0  0  0  0  0  0  0  0  0  0  0
    4.4338   -7.6063    0.7434 H   0  0  0  0  0  0  0  0  0  0  0  0
    3.2085   -4.8393    5.6051 H   0  0  0  0  0  0  0  0  0  0  0  0
    0.8403   -4.8439    5.7105 H   0  0  0  0  0  0  0  0  0  0  0  0
   -0.1521   -4.8000    4.2092 H   0  0  0  0  0  0  0  0  0  0  0  0
    0.1120   -3.4267    5.1784 H   0  0  0  0  0  0  0  0  0  0  0  0
    2.5868    0.5823    2.1903 H   0  0  0  0  0  0  0  0  0  0  0  0
    0.7348   -0.1720    1.1544 H   0  0  0  0  0  0  0  0  0  0  0  0
  1  2  1  0
  1 38  1  0
  1 39  1  0
  1 40  1  0
  2 36  1  0
  2  3  1  0
  2  4  1  0
  3 41  1  0
  3 42  1  0
  3 43  1  0
  4  5  1  0
  4 44  1  0
  4 45  1  0
  5 34  1  0
  5  6  1  0
  5 46  1  6
  6  7  1  0
  6 36  1  0
  6 47  1  1
  7  8  1  0
  8  9  1  0
  8 48  1  0
  8 49  1  0
  9 14  1  0
  9 10  2  0
 10 11  1  0
 10 50  1  0
 11 33  1  0
 11 12  1  0
 11 51  1  1
 12 13  1  0
 13 34  1  0
 13 14  1  0
 13 52  1  6
 14 31  1  0
 14 15  1  6
 15 16  1  0
 15 53  1  0
 15 54  1  0
 16 17  1  0
 17 27  1  0
 17 18  1  0
 17 55  1  6
 18 19  1  0
 18 56  1  0
 18 57  1  0
 19 27  1  0
 19 20  1  0
 19 58  1  6
 20 21  1  0
 20 22  1  0
 20 23  1  0
 21 59  1  0
 21 60  1  0
 21 61  1  0
 22 62  1  0
 22 63  1  0
 22 64  1  0
 23 24  1  0
 23 25  1  0
 23 65  1  1
 24 66  1  0
 25 26  1  0
 25 67  1  0
 25 68  1  0
 27 26  1  6
 26 69  1  0
 26 70  1  0
 27 28  1  0
 28 29  1  1
 28 30  1  0
 28 33  1  0
 29 71  1  0
 30 31  1  0
 30 72  1  0
 30 73  1  0
 31 32  1  0
 31 74  1  1
 32 75  1  0
 33 34  1  0
 33 76  1  1
 34 35  1  1
 35 77  1  0
 35 78  1  0
 35 79  1  0
 36 37  1  0
 36 80  1  6
 37 81  1  0
M  END
>  <i_m_ct_stereo_status>  (287) 
1

>  <s_m_source_file>  (287) 
/var/tmp/pbs.5076255.sched01/tmpnpseqx1a/1202b9de7rm.sdf

>  <i_m_source_file_index>  (287) 
15

>  <i_lp_mmshare_version>  (287) 
48012

>  <i_f3d_flags>  (287) 
0

>  <s_epik_input>  (287) 
W0NIM11DKFtDSDNdKShbQ0gyXTEpW0NASF0oW09IXSlbQ0BIXShPW0NIMl0yKVtDQEhdMVtDQF0oW0NIXTNPNCkoW0NIM10pW0NASF0oW0NASF00W0NIXT1DMltDQEBdMzU2KVtDQF0oW09IXSkoW0NIMl1bQ0BIXTZbT0hdKVtDQEBdNzhbQ0BIXShPW0NIMl01KVtDSDJdW0NAQEhdN0MoW0NIM10pKFtDSDNdKVtDQEBIXShbT0hdKVtDSDJdW0NIMl04

>  <s_epik_cmdline>  (287) 
J2VwaWtfcHl0aG9uJywgJy1waHQnLCAnMi4wJywgJy1waCcsICc3LjAnLCAnLXRuJywgJzgnLCAnLW1hJywgJzIwMCcsICctaW1hZScsICc8aW5maWxlLm1hZT4nLCAnLW9tYWUnLCAnPG91dGZpbGUubWFlPic=

>  <r_lp_tautomer_probability>  (287) 
1

>  <r_epik_Ionization_Penalty>  (287) 
2.0831e-06

>  <r_epik_Ionization_Penalty_Charging>  (287) 
0

>  <r_epik_Ionization_Penalty_Neutral>  (287) 
2.0831e-06

>  <r_epik_State_Penalty>  (287) 
-0

>  <r_epik_Charging_Adjusted_Penalty>  (287) 
0

>  <i_epik_Tot_Q>  (287) 
0

>  <i_epik_Tot_abs_Q>  (287) 
0

>  <s_lp_Force_Field>  (287) 
OPLS3e

>  <r_lp_Energy>  (287) 
437.539

>  <b_lp_Chiralities_Consistent>  (287) 
1

>  <s_lp_Variant>  (287) 
99:0-1

>  <s_i_glide_gridfile>  (287) 
pfpi4k_grid

>  <i_i_glide_lignum>  (287) 
15

>  <i_i_glide_rotatable_bonds>  (287) 
4

>  <r_i_docking_score>  (287) 
-2.90979

>  <r_i_glide_ligand_efficiency>  (287) 
-0.078643

>  <r_i_glide_ligand_efficiency_sa>  (287) 
-0.262056

>  <r_i_glide_ligand_efficiency_ln>  (287) 
-0.631066

>  <r_i_glide_gscore>  (287) 
-2.90979

>  <r_i_glide_lipo>  (287) 
-0.329069

>  <r_i_glide_hbond>  (287) 
0

>  <r_i_glide_metal>  (287) 
-0

>  <r_i_glide_rewards>  (287) 
-0.5

>  <r_i_glide_evdw>  (287) 
-32.1354

>  <r_i_glide_ecoul>  (287) 
-3.15968

>  <r_i_glide_erotb>  (287) 
0

>  <r_i_glide_esite>  (287) 
0

>  <r_i_glide_emodel>  (287) 
-47.1484

>  <r_i_glide_energy>  (287) 
-35.2951

>  <r_i_glide_einternal>  (287) 
0.771891

>  <r_i_glide_intrahb_reward>  (287) 
-0.5

>  <i_i_glide_confnum>  (287) 
2

>  <i_i_glide_posenum>  (287) 
17

>  <r_i_glide_eff_state_penalty>  (287) 
0

>  <ligand_id>  (287) 
99

>  <original_smiles>  (287) 
CC1(C)CC2C(OCC3=CC4OC5C36COC3CC7C(C)(C)C(O)CCC37C(O)(CC6O)C4C25C)C1O

>  <smiles>  (287) 
[H]OC1([H])C([H])([H])C2(O[H])C3([H])C4([H])OC5([H])C1(C(=C4[H])C([H])([H])OC1([H])C([H])(O[H])C(C([H])([H])[H])(C([H])([H])[H])C([H])([H])C1([H])C53C([H])([H])[H])C([H])([H])OC1([H])C([H])([H])C3([H])C(C([H])([H])[H])(C([H])([H])[H])C([H])(O[H])C([H])([H])C([H])([H])C132

$$$$
99:0:1
     RDKit          3D

 81 88  0  0  1  0  0  0  0  0999 V2000
    1.2019    2.1916    4.7828 C   0  0  0  0  0  0  0  0  0  0  0  0
    2.3003    1.2003    4.3317 C   0  0  0  0  0  0  0  0  0  0  0  0
    3.6503    1.7079    4.8864 C   0  0  0  0  0  0  0  0  0  0  0  0
    2.0177   -0.2411    4.8672 C   0  0  0  0  0  0  0  0  0  0  0  0
    1.9173   -1.1684    3.6380 C   0  0  1  0  0  0  0  0  0  0  0  0
    2.8183   -0.4113    2.6095 C   0  0  1  0  0  0  0  0  0  0  0  0
    2.8122   -0.8731    1.2431 O   0  0  0  0  0  0  0  0  0  0  0  0
    4.0179   -1.4586    0.7043 C   0  0  0  0  0  0  0  0  0  0  0  0
    4.4652   -2.6769    1.4978 C   0  0  0  0  0  0  0  0  0  0  0  0
    5.1050   -2.4821    2.6792 C   0  0  0  0  0  0  0  0  0  0  0  0
    4.5890   -3.2059    3.9608 C   0  0  1  0  0  0  0  0  0  0  0  0
    3.3032   -2.9214    3.5719 O   0  0  0  0  0  0  0  0  0  0  0  0
    2.4193   -3.4117    2.5080 C   0  0  2  0  0  0  0  0  0  0  0  0
    3.6076   -3.9387    1.5744 C   0  0  1  0  0  0  0  0  0  0  0  0
    2.7657   -4.4627    0.3676 C   0  0  0  0  0  0  0  0  0  0  0  0
    1.7679   -5.4618    0.7619 O   0  0  0  0  0  0  0  0  0  0  0  0
    2.1976   -6.5175    1.6515 C   0  0  2  0  0  0  0  0  0  0  0  0
    1.4656   -7.8338    1.6887 C   0  0  0  0  0  0  0  0  0  0  0  0
    2.1312   -8.0081    3.0906 C   0  0  2  0  0  0  0  0  0  0  0  0
    1.5088   -9.0185    4.1079 C   0  0  0  0  0  0  0  0  0  0  0  0
    0.8463  -10.1918    3.3474 C   0  0  0  0  0  0  0  0  0  0  0  0
    2.6103   -9.6458    4.9965 C   0  0  0  0  0  0  0  0  0  0  0  0
    0.4104   -8.3573    4.9874 C   0  0  1  0  0  0  0  0  0  0  0  0
    0.9172   -7.8092    6.1929 O   0  0  0  0  0  0  0  0  0  0  0  0
   -0.3104   -7.2419    4.2368 C   0  0  0  0  0  0  0  0  0  0  0  0
    0.6465   -6.0949    3.8361 C   0  0  0  0  0  0  0  0  0  0  0  0
    2.0477   -6.4252    3.2458 C   0  0  2  0  0  0  0  0  0  0  0  0
    3.2274   -5.5654    4.0172 C   0  0  1  0  0  0  0  0  0  0  0  0
    3.3806   -6.2192    5.2622 O   0  0  0  0  0  0  0  0  0  0  0  0
    4.5468   -5.8737    3.2748 C   0  0  0  0  0  0  0  0  0  0  0  0
    4.6960   -5.0975    1.9417 C   0  0  1  0  0  0  0  0  0  0  0  0
    5.2037   -5.8715    0.8637 O   0  0  0  0  0  0  0  0  0  0  0  0
    3.2404   -3.9096    4.4045 C   0  0  2  0  0  0  0  0  0  0  0  0
    2.0734   -2.8406    3.8648 C   0  0  1  0  0  0  0  0  0  0  0  0
    0.7205   -3.1280    4.5854 C   0  0  0  0  0  0  0  0  0  0  0  0
    2.4012    1.0563    2.7798 C   0  0  1  0  0  0  0  0  0  0  0  0
    1.1478    1.2860    2.1568 O   0  0  0  0  0  0  0  0  0  0  0  0
    1.1980    2.3051    5.8676 H   0  0  0  0  0  0  0  0  0  0  0  0
    0.2058    1.8525    4.4945 H   0  0  0  0  0  0  0  0  0  0  0  0
    1.3556    3.1808    4.3481 H   0  0  0  0  0  0  0  0  0  0  0  0
    4.4758    1.0453    4.6203 H   0  0  0  0  0  0  0  0  0  0  0  0
    3.6302    1.7817    5.9750 H   0  0  0  0  0  0  0  0  0  0  0  0
    3.8899    2.6981    4.4932 H   0  0  0  0  0  0  0  0  0  0  0  0
    2.8233   -0.5790    5.5200 H   0  0  0  0  0  0  0  0  0  0  0  0
    1.1060   -0.2688    5.4624 H   0  0  0  0  0  0  0  0  0  0  0  0
    0.9136   -1.0447    3.2266 H   0  0  0  0  0  0  0  0  0  0  0  0
    3.8374   -0.4007    2.9692 H   0  0  0  0  0  0  0  0  0  0  0  0
    3.8393   -1.7453   -0.3334 H   0  0  0  0  0  0  0  0  0  0  0  0
    4.8087   -0.7062    0.6968 H   0  0  0  0  0  0  0  0  0  0  0  0
    5.6191   -1.5527    2.8719 H   0  0  0  0  0  0  0  0  0  0  0  0
    4.8946   -2.5719    4.7913 H   0  0  0  0  0  0  0  0  0  0  0  0
    1.6359   -4.1365    2.5699 H   0  0  0  0  0  0  0  0  0  0  0  0
    2.2199   -3.6328   -0.0842 H   0  0  0  0  0  0  0  0  0  0  0  0
    3.3910   -4.8553   -0.4331 H   0  0  0  0  0  0  0  0  0  0  0  0
    3.1491   -6.8738    1.2840 H   0  0  0  0  0  0  0  0  0  0  0  0
    0.3831   -7.7365    1.6506 H   0  0  0  0  0  0  0  0  0  0  0  0
    1.8123   -8.5584    0.9495 H   0  0  0  0  0  0  0  0  0  0  0  0
    3.1559   -8.3306    2.9017 H   0  0  0  0  0  0  0  0  0  0  0  0
    0.4888  -10.9587    4.0369 H   0  0  0  0  0  0  0  0  0  0  0  0
    1.5420  -10.6717    2.6602 H   0  0  0  0  0  0  0  0  0  0  0  0
   -0.0193   -9.8695    2.7690 H   0  0  0  0  0  0  0  0  0  0  0  0
    2.1815  -10.3137    5.7454 H   0  0  0  0  0  0  0  0  0  0  0  0
    3.1971   -8.8937    5.5201 H   0  0  0  0  0  0  0  0  0  0  0  0
    3.3064  -10.2385    4.4037 H   0  0  0  0  0  0  0  0  0  0  0  0
   -0.3185   -9.1119    5.2913 H   0  0  0  0  0  0  0  0  0  0  0  0
    1.2981   -8.5185    6.6921 H   0  0  0  0  0  0  0  0  0  0  0  0
   -0.8231   -7.6638    3.3756 H   0  0  0  0  0  0  0  0  0  0  0  0
   -1.1095   -6.8420    4.8618 H   0  0  0  0  0  0  0  0  0  0  0  0
    0.0953   -5.4660    3.1488 H   0  0  0  0  0  0  0  0  0  0  0  0
    0.7910   -5.5914    4.7759 H   0  0  0  0  0  0  0  0  0  0  0  0
    2.5522   -6.2048    5.7205 H   0  0  0  0  0  0  0  0  0  0  0  0
    5.3894   -5.6292    3.9245 H   0  0  0  0  0  0  0  0  0  0  0  0
    4.6935   -6.9362    3.1038 H   0  0  0  0  0  0  0  0  0  0  0  0
    5.6864   -4.6696    2.0791 H   0  0  0  0  0  0  0  0  0  0  0  0
    4.5158   -6.4241    0.5275 H   0  0  0  0  0  0  0  0  0  0  0  0
    3.2219   -3.8759    5.5063 H   0  0  0  0  0  0  0  0  0  0  0  0
    0.8540   -3.7254    5.4838 H   0  0  0  0  0  0  0  0  0  0  0  0
   -0.0433   -3.5351    3.9370 H   0  0  0  0  0  0  0  0  0  0  0  0
    0.2522   -2.2358    4.9886 H   0  0  0  0  0  0  0  0  0  0  0  0
    3.1334    1.7354    2.3389 H   0  0  0  0  0  0  0  0  0  0  0  0
    1.0300    2.2173    2.0240 H   0  0  0  0  0  0  0  0  0  0  0  0
  1  2  1  0
  1 38  1  0
  1 39  1  0
  1 40  1  0
  2 36  1  0
  2  3  1  0
  2  4  1  0
  3 41  1  0
  3 42  1  0
  3 43  1  0
  4  5  1  0
  4 44  1  0
  4 45  1  0
  5 34  1  0
  5  6  1  0
  5 46  1  6
  6  7  1  0
  6 36  1  0
  6 47  1  1
  7  8  1  0
  8  9  1  0
  8 48  1  0
  8 49  1  0
  9 14  1  0
  9 10  2  0
 10 11  1  0
 10 50  1  0
 11 33  1  0
 11 12  1  0
 11 51  1  1
 12 13  1  0
 13 34  1  0
 13 14  1  0
 13 52  1  6
 14 31  1  0
 14 15  1  6
 15 16  1  0
 15 53  1  0
 15 54  1  0
 16 17  1  0
 17 27  1  0
 17 18  1  0
 17 55  1  1
 18 19  1  0
 18 56  1  0
 18 57  1  0
 19 27  1  0
 19 20  1  0
 19 58  1  6
 20 21  1  0
 20 22  1  0
 20 23  1  0
 21 59  1  0
 21 60  1  0
 21 61  1  0
 22 62  1  0
 22 63  1  0
 22 64  1  0
 23 24  1  0
 23 25  1  0
 23 65  1  1
 24 66  1  0
 25 26  1  0
 25 67  1  0
 25 68  1  0
 27 26  1  6
 26 69  1  0
 26 70  1  0
 27 28  1  0
 28 29  1  1
 28 30  1  0
 28 33  1  0
 29 71  1  0
 30 31  1  0
 30 72  1  0
 30 73  1  0
 31 32  1  0
 31 74  1  1
 32 75  1  0
 33 34  1  0
 33 76  1  1
 34 35  1  1
 35 77  1  0
 35 78  1  0
 35 79  1  0
 36 37  1  0
 36 80  1  6
 37 81  1  0
M  END
>  <i_m_ct_stereo_status>  (288) 
1

>  <s_m_source_file>  (288) 
/var/tmp/pbs.5076255.sched01/tmpnpseqx1a/1202b9de7rm.sdf

>  <i_m_source_file_index>  (288) 
15

>  <i_lp_mmshare_version>  (288) 
48012

>  <i_f3d_flags>  (288) 
0

>  <s_epik_input>  (288) 
W0NIM11DKFtDSDNdKShbQ0gyXTEpW0NASF0oW09IXSlbQ0BIXShPW0NIMl0yKVtDQEhdMVtDQF0oW0NIXTNPNCkoW0NIM10pW0NASF0oW0NASF00W0NIXT1DMltDQEBdMzU2KVtDQF0oW09IXSkoW0NIMl1bQ0BIXTZbT0hdKVtDQEBdNzhbQ0BIXShPW0NIMl01KVtDSDJdW0NAQEhdN0MoW0NIM10pKFtDSDNdKVtDQEBIXShbT0hdKVtDSDJdW0NIMl04

>  <s_epik_cmdline>  (288) 
J2VwaWtfcHl0aG9uJywgJy1waHQnLCAnMi4wJywgJy1waCcsICc3LjAnLCAnLXRuJywgJzgnLCAnLW1hJywgJzIwMCcsICctaW1hZScsICc8aW5maWxlLm1hZT4nLCAnLW9tYWUnLCAnPG91dGZpbGUubWFlPic=

>  <r_lp_tautomer_probability>  (288) 
1

>  <r_epik_Ionization_Penalty>  (288) 
2.0831e-06

>  <r_epik_Ionization_Penalty_Charging>  (288) 
0

>  <r_epik_Ionization_Penalty_Neutral>  (288) 
2.0831e-06

>  <r_epik_State_Penalty>  (288) 
-0

>  <r_epik_Charging_Adjusted_Penalty>  (288) 
0

>  <i_epik_Tot_Q>  (288) 
0

>  <i_epik_Tot_abs_Q>  (288) 
0

>  <s_lp_Force_Field>  (288) 
OPLS3e

>  <r_lp_Energy>  (288) 
437.539

>  <b_lp_Chiralities_Consistent>  (288) 
1

>  <s_lp_Variant>  (288) 
99:0-1

>  <s_i_glide_gridfile>  (288) 
pfpi4k_grid

>  <i_i_glide_lignum>  (288) 
15

>  <i_i_glide_rotatable_bonds>  (288) 
4

>  <r_i_docking_score>  (288) 
-2.86802

>  <r_i_glide_ligand_efficiency>  (288) 
-0.077514

>  <r_i_glide_ligand_efficiency_sa>  (288) 
-0.258294

>  <r_i_glide_ligand_efficiency_ln>  (288) 
-0.622006

>  <r_i_glide_gscore>  (288) 
-2.86802

>  <r_i_glide_lipo>  (288) 
-0.194846

>  <r_i_glide_hbond>  (288) 
-0.108992

>  <r_i_glide_metal>  (288) 
-0

>  <r_i_glide_rewards>  (288) 
-0.5

>  <r_i_glide_evdw>  (288) 
-32.3903

>  <r_i_glide_ecoul>  (288) 
-2.96441

>  <r_i_glide_erotb>  (288) 
0

>  <r_i_glide_esite>  (288) 
0

>  <r_i_glide_emodel>  (288) 
-46.9874

>  <r_i_glide_energy>  (288) 
-35.3547

>  <r_i_glide_einternal>  (288) 
0.858337

>  <r_i_glide_intrahb_reward>  (288) 
-0.5

>  <i_i_glide_confnum>  (288) 
1

>  <i_i_glide_posenum>  (288) 
21

>  <r_i_glide_eff_state_penalty>  (288) 
0

>  <ligand_id>  (288) 
99

>  <original_smiles>  (288) 
CC1(C)CC2C(OCC3=CC4OC5C36COC3CC7C(C)(C)C(O)CCC37C(O)(CC6O)C4C25C)C1O

>  <smiles>  (288) 
[H]OC1([H])C([H])([H])C2(O[H])C3([H])C4([H])OC5([H])C1(C(=C4[H])C([H])([H])OC1([H])C([H])(O[H])C(C([H])([H])[H])(C([H])([H])[H])C([H])([H])C1([H])C53C([H])([H])[H])C([H])([H])OC1([H])C([H])([H])C3([H])C(C([H])([H])[H])(C([H])([H])[H])C([H])(O[H])C([H])([H])C([H])([H])C132

$$$$
99:0:2
     RDKit          3D

 81 88  0  0  1  0  0  0  0  0999 V2000
    0.7657    1.0474    4.7046 C   0  0  0  0  0  0  0  0  0  0  0  0
    1.8956    0.1029    4.2384 C   0  0  0  0  0  0  0  0  0  0  0  0
    3.2402    0.7251    4.6875 C   0  0  0  0  0  0  0  0  0  0  0  0
    1.7435   -1.3191    4.8645 C   0  0  0  0  0  0  0  0  0  0  0  0
    1.6330   -2.3139    3.6914 C   0  0  1  0  0  0  0  0  0  0  0  0
    2.4257   -1.5612    2.5742 C   0  0  1  0  0  0  0  0  0  0  0  0
    2.3586   -2.1092    1.2437 O   0  0  0  0  0  0  0  0  0  0  0  0
    3.5728   -2.6230    0.6527 C   0  0  0  0  0  0  0  0  0  0  0  0
    4.1542   -3.7668    1.4735 C   0  0  0  0  0  0  0  0  0  0  0  0
    4.8499   -3.4686    2.6020 C   0  0  0  0  0  0  0  0  0  0  0  0
    4.4500   -4.1561    3.9474 C   0  0  1  0  0  0  0  0  0  0  0  0
    3.1310   -3.9694    3.6228 O   0  0  0  0  0  0  0  0  0  0  0  0
    2.2189   -4.5736    2.6429 C   0  0  2  0  0  0  0  0  0  0  0  0
    3.3846   -5.0693    1.6638 C   0  0  1  0  0  0  0  0  0  0  0  0
    2.5059   -5.7027    0.5396 C   0  0  0  0  0  0  0  0  0  0  0  0
    1.5873   -6.7262    1.0468 O   0  0  0  0  0  0  0  0  0  0  0  0
    2.1452   -7.7134    1.9463 C   0  0  2  0  0  0  0  0  0  0  0  0
    1.5132   -9.0745    2.0900 C   0  0  0  0  0  0  0  0  0  0  0  0
    2.2702   -9.1369    3.4535 C   0  0  2  0  0  0  0  0  0  0  0  0
    1.7784  -10.1295    4.5529 C   0  0  0  0  0  0  0  0  0  0  0  0
    1.1511  -11.3799    3.8969 C   0  0  0  0  0  0  0  0  0  0  0  0
    2.9759  -10.6369    5.3893 C   0  0  0  0  0  0  0  0  0  0  0  0
    0.6945   -9.4960    5.4687 C   0  0  1  0  0  0  0  0  0  0  0  0
    1.2326   -8.8712    6.6222 O   0  0  0  0  0  0  0  0  0  0  0  0
   -0.1448   -8.4709    4.7119 C   0  0  0  0  0  0  0  0  0  0  0  0
    0.6985   -7.2867    4.1949 C   0  0  0  0  0  0  0  0  0  0  0  0
    2.0868   -7.5557    3.5405 C   0  0  2  0  0  0  0  0  0  0  0  0
    3.2510   -6.5880    4.1973 C   0  0  1  0  0  0  0  0  0  0  0  0
    3.5187   -7.1661    5.4610 O   0  0  0  0  0  0  0  0  0  0  0  0
    4.5424   -6.8517    3.3937 C   0  0  0  0  0  0  0  0  0  0  0  0
    4.5662   -6.1371    2.0205 C   0  0  1  0  0  0  0  0  0  0  0  0
    5.0377   -6.9492    0.9552 O   0  0  0  0  0  0  0  0  0  0  0  0
    3.1790   -4.9190    4.5028 C   0  0  2  0  0  0  0  0  0  0  0  0
    1.9124   -3.9569    3.9886 C   0  0  1  0  0  0  0  0  0  0  0  0
    0.6234   -4.2947    4.7991 C   0  0  0  0  0  0  0  0  0  0  0  0
    1.9250   -0.1168    2.6875 C   0  0  1  0  0  0  0  0  0  0  0  0
    0.6381   -0.0176    2.0954 O   0  0  0  0  0  0  0  0  0  0  0  0
    0.8197    1.2164    5.7811 H   0  0  0  0  0  0  0  0  0  0  0  0
   -0.2215    0.6354    4.4918 H   0  0  0  0  0  0  0  0  0  0  0  0
    0.8316    2.0213    4.2156 H   0  0  0  0  0  0  0  0  0  0  0  0
    4.0924    0.1042    4.4071 H   0  0  0  0  0  0  0  0  0  0  0  0
    3.2757    0.8550    5.7705 H   0  0  0  0  0  0  0  0  0  0  0  0
    3.3917    1.7082    4.2343 H   0  0  0  0  0  0  0  0  0  0  0  0
    2.6074   -1.5679    5.4823 H   0  0  0  0  0  0  0  0  0  0  0  0
    0.8719   -1.3713    5.5159 H   0  0  0  0  0  0  0  0  0  0  0  0
    0.6014   -2.2746    3.3346 H   0  0  0  0  0  0  0  0  0  0  0  0
    3.4611   -1.4685    2.8691 H   0  0  0  0  0  0  0  0  0  0  0  0
    3.3551   -2.9736   -0.3585 H   0  0  0  0  0  0  0  0  0  0  0  0
    4.3027   -1.8177    0.5633 H   0  0  0  0  0  0  0  0  0  0  0  0
    5.3064   -2.5001    2.7226 H   0  0  0  0  0  0  0  0  0  0  0  0
    4.7610   -3.4630    4.7263 H   0  0  0  0  0  0  0  0  0  0  0  0
    1.4900   -5.3375    2.7947 H   0  0  0  0  0  0  0  0  0  0  0  0
    1.8936   -4.9291    0.0736 H   0  0  0  0  0  0  0  0  0  0  0  0
    3.1098   -6.1085   -0.2696 H   0  0  0  0  0  0  0  0  0  0  0  0
    3.0918   -8.0278    1.5267 H   0  0  0  0  0  0  0  0  0  0  0  0
    0.4260   -9.0476    2.1155 H   0  0  0  0  0  0  0  0  0  0  0  0
    1.8649   -9.8077    1.3649 H   0  0  0  0  0  0  0  0  0  0  0  0
    3.2992   -9.4027    3.2118 H   0  0  0  0  0  0  0  0  0  0  0  0
    0.8888  -12.1321    4.6450 H   0  0  0  0  0  0  0  0  0  0  0  0
    1.8354  -11.8521    3.1931 H   0  0  0  0  0  0  0  0  0  0  0  0
    0.2312  -11.1424    3.3626 H   0  0  0  0  0  0  0  0  0  0  0  0
    2.6336  -11.2947    6.1858 H   0  0  0  0  0  0  0  0  0  0  0  0
    3.5373   -9.8267    5.8495 H   0  0  0  0  0  0  0  0  0  0  0  0
    3.6700  -11.2164    4.7834 H   0  0  0  0  0  0  0  0  0  0  0  0
    0.0355  -10.2767    5.8529 H   0  0  0  0  0  0  0  0  0  0  0  0
    1.5895   -9.5597    7.1676 H   0  0  0  0  0  0  0  0  0  0  0  0
   -0.6763   -8.9744    3.9071 H   0  0  0  0  0  0  0  0  0  0  0  0
   -0.9345   -8.0942    5.3579 H   0  0  0  0  0  0  0  0  0  0  0  0
    0.0512   -6.7407    3.5146 H   0  0  0  0  0  0  0  0  0  0  0  0
    0.8665   -6.7292    5.0985 H   0  0  0  0  0  0  0  0  0  0  0  0
    2.7053   -7.2492    5.9396 H   0  0  0  0  0  0  0  0  0  0  0  0
    5.4030   -6.5238    3.9786 H   0  0  0  0  0  0  0  0  0  0  0  0
    4.7452   -7.9121    3.2641 H   0  0  0  0  0  0  0  0  0  0  0  0
    5.5351   -5.6453    2.0702 H   0  0  0  0  0  0  0  0  0  0  0  0
    5.8122   -7.4056    1.2490 H   0  0  0  0  0  0  0  0  0  0  0  0
    3.2185   -4.8294    5.6018 H   0  0  0  0  0  0  0  0  0  0  0  0
    0.8506   -4.8317    5.7169 H   0  0  0  0  0  0  0  0  0  0  0  0
   -0.1478   -4.7887    4.2196 H   0  0  0  0  0  0  0  0  0  0  0  0
    0.1220   -3.4143    5.1849 H   0  0  0  0  0  0  0  0  0  0  0  0
    2.5886    0.5873    2.1814 H   0  0  0  0  0  0  0  0  0  0  0  0
    0.7301   -0.1619    1.1554 H   0  0  0  0  0  0  0  0  0  0  0  0
  1  2  1  0
  1 38  1  0
  1 39  1  0
  1 40  1  0
  2 36  1  0
  2  3  1  0
  2  4  1  0
  3 41  1  0
  3 42  1  0
  3 43  1  0
  4  5  1  0
  4 44  1  0
  4 45  1  0
  5 34  1  0
  5  6  1  0
  5 46  1  6
  6  7  1  0
  6 36  1  0
  6 47  1  1
  7  8  1  0
  8  9  1  0
  8 48  1  0
  8 49  1  0
  9 14  1  0
  9 10  2  0
 10 11  1  0
 10 50  1  0
 11 33  1  0
 11 12  1  0
 11 51  1  1
 12 13  1  0
 13 34  1  0
 13 14  1  0
 13 52  1  6
 14 31  1  0
 14 15  1  6
 15 16  1  0
 15 53  1  0
 15 54  1  0
 16 17  1  0
 17 27  1  0
 17 18  1  0
 17 55  1  6
 18 19  1  0
 18 56  1  0
 18 57  1  0
 19 27  1  0
 19 20  1  0
 19 58  1  6
 20 21  1  0
 20 22  1  0
 20 23  1  0
 21 59  1  0
 21 60  1  0
 21 61  1  0
 22 62  1  0
 22 63  1  0
 22 64  1  0
 23 24  1  0
 23 25  1  0
 23 65  1  1
 24 66  1  0
 25 26  1  0
 25 67  1  0
 25 68  1  0
 27 26  1  6
 26 69  1  0
 26 70  1  0
 27 28  1  0
 28 29  1  1
 28 30  1  0
 28 33  1  0
 29 71  1  0
 30 31  1  0
 30 72  1  0
 30 73  1  0
 31 32  1  0
 31 74  1  1
 32 75  1  0
 33 34  1  0
 33 76  1  1
 34 35  1  1
 35 77  1  0
 35 78  1  0
 35 79  1  0
 36 37  1  0
 36 80  1  6
 37 81  1  0
M  END
>  <i_m_ct_stereo_status>  (289) 
1

>  <s_m_source_file>  (289) 
/var/tmp/pbs.5076255.sched01/tmpnpseqx1a/1202b9de7rm.sdf

>  <i_m_source_file_index>  (289) 
15

>  <i_lp_mmshare_version>  (289) 
48012

>  <i_f3d_flags>  (289) 
0

>  <s_epik_input>  (289) 
W0NIM11DKFtDSDNdKShbQ0gyXTEpW0NASF0oW09IXSlbQ0BIXShPW0NIMl0yKVtDQEhdMVtDQF0oW0NIXTNPNCkoW0NIM10pW0NASF0oW0NASF00W0NIXT1DMltDQEBdMzU2KVtDQF0oW09IXSkoW0NIMl1bQ0BIXTZbT0hdKVtDQEBdNzhbQ0BIXShPW0NIMl01KVtDSDJdW0NAQEhdN0MoW0NIM10pKFtDSDNdKVtDQEBIXShbT0hdKVtDSDJdW0NIMl04

>  <s_epik_cmdline>  (289) 
J2VwaWtfcHl0aG9uJywgJy1waHQnLCAnMi4wJywgJy1waCcsICc3LjAnLCAnLXRuJywgJzgnLCAnLW1hJywgJzIwMCcsICctaW1hZScsICc8aW5maWxlLm1hZT4nLCAnLW9tYWUnLCAnPG91dGZpbGUubWFlPic=

>  <r_lp_tautomer_probability>  (289) 
1

>  <r_epik_Ionization_Penalty>  (289) 
2.0831e-06

>  <r_epik_Ionization_Penalty_Charging>  (289) 
0

>  <r_epik_Ionization_Penalty_Neutral>  (289) 
2.0831e-06

>  <r_epik_State_Penalty>  (289) 
-0

>  <r_epik_Charging_Adjusted_Penalty>  (289) 
0

>  <i_epik_Tot_Q>  (289) 
0

>  <i_epik_Tot_abs_Q>  (289) 
0

>  <s_lp_Force_Field>  (289) 
OPLS3e

>  <r_lp_Energy>  (289) 
437.539

>  <b_lp_Chiralities_Consistent>  (289) 
1

>  <s_lp_Variant>  (289) 
99:0-1

>  <s_i_glide_gridfile>  (289) 
pfpi4k_grid

>  <i_i_glide_lignum>  (289) 
15

>  <i_i_glide_rotatable_bonds>  (289) 
4

>  <r_i_docking_score>  (289) 
-2.86473

>  <r_i_glide_ligand_efficiency>  (289) 
-0.0774251

>  <r_i_glide_ligand_efficiency_sa>  (289) 
-0.257998

>  <r_i_glide_ligand_efficiency_ln>  (289) 
-0.621293

>  <r_i_glide_gscore>  (289) 
-2.86473

>  <r_i_glide_lipo>  (289) 
-0.330241

>  <r_i_glide_hbond>  (289) 
0

>  <r_i_glide_metal>  (289) 
-0

>  <r_i_glide_rewards>  (289) 
-0.5

>  <r_i_glide_evdw>  (289) 
-32.134

>  <r_i_glide_ecoul>  (289) 
-2.85192

>  <r_i_glide_erotb>  (289) 
0

>  <r_i_glide_esite>  (289) 
0

>  <r_i_glide_emodel>  (289) 
-46.5825

>  <r_i_glide_energy>  (289) 
-34.9859

>  <r_i_glide_einternal>  (289) 
1.07933

>  <r_i_glide_intrahb_reward>  (289) 
-0.5

>  <i_i_glide_confnum>  (289) 
2

>  <i_i_glide_posenum>  (289) 
7

>  <r_i_glide_eff_state_penalty>  (289) 
0

>  <ligand_id>  (289) 
99

>  <original_smiles>  (289) 
CC1(C)CC2C(OCC3=CC4OC5C36COC3CC7C(C)(C)C(O)CCC37C(O)(CC6O)C4C25C)C1O

>  <smiles>  (289) 
[H]OC1([H])C([H])([H])C2(O[H])C3([H])C4([H])OC5([H])C1(C(=C4[H])C([H])([H])OC1([H])C([H])(O[H])C(C([H])([H])[H])(C([H])([H])[H])C([H])([H])C1([H])C53C([H])([H])[H])C([H])([H])OC1([H])C([H])([H])C3([H])C(C([H])([H])[H])(C([H])([H])[H])C([H])(O[H])C([H])([H])C([H])([H])C132

$$$$
100:0:0
     RDKit          3D

 23 23  0  0  1  0  0  0  0  0999 V2000
    4.6023   -3.9560   -4.3063 O   0  0  0  0  0  0  0  0  0  0  0  0
    4.6652   -3.2043   -3.3377 C   0  0  0  0  0  0  0  0  0  0  0  0
    3.5915   -2.3086   -2.9040 C   0  0  0  0  0  0  0  0  0  0  0  0
    3.7896   -1.4714   -1.8635 C   0  0  0  0  0  0  0  0  0  0  0  0
    4.9728   -1.4370   -1.1387 N   0  0  0  0  0  0  0  0  0  0  0  0
    5.1018   -0.6701    0.0926 C   0  0  0  0  0  0  0  0  0  0  0  0
    4.7329   -1.4528    1.1898 O   0  0  0  0  0  0  0  0  0  0  0  0
    3.3303   -1.7290    1.3389 C   0  0  0  0  0  0  0  0  0  0  0  0
    2.5799   -0.4744    1.8449 C   0  0  0  0  0  0  0  0  0  0  0  0
    1.2005   -0.6344    1.6831 O   0  0  0  0  0  0  0  0  0  0  0  0
    6.0342   -2.2838   -1.4843 C   0  0  0  0  0  0  0  0  0  0  0  0
    7.1209   -2.2886   -0.8918 O   0  0  0  0  0  0  0  0  0  0  0  0
    5.8297   -3.1184   -2.5849 N   0  0  0  0  0  0  0  0  0  0  0  0
    6.6086   -3.7027   -2.8640 H   0  0  0  0  0  0  0  0  0  0  0  0
    2.6344   -2.3208   -3.3861 H   0  0  0  0  0  0  0  0  0  0  0  0
    2.9739   -0.8318   -1.5717 H   0  0  0  0  0  0  0  0  0  0  0  0
    6.1288   -0.3174    0.2387 H   0  0  0  0  0  0  0  0  0  0  0  0
    4.4978    0.2215   -0.0010 H   0  0  0  0  0  0  0  0  0  0  0  0
    2.8863   -2.1144    0.4216 H   0  0  0  0  0  0  0  0  0  0  0  0
    3.2024   -2.5523    2.0493 H   0  0  0  0  0  0  0  0  0  0  0  0
    2.8570   -0.2945    2.8871 H   0  0  0  0  0  0  0  0  0  0  0  0
    2.8438    0.4338    1.2936 H   0  0  0  0  0  0  0  0  0  0  0  0
    1.0238   -0.6637    0.7265 H   0  0  0  0  0  0  0  0  0  0  0  0
  1  2  2  0
  2 13  1  0
  2  3  1  0
  3  4  2  0
  3 15  1  0
  4  5  1  0
  4 16  1  0
  5  6  1  0
  5 11  1  0
  6  7  1  0
  6 17  1  0
  6 18  1  0
  7  8  1  0
  8  9  1  0
  8 19  1  0
  8 20  1  0
  9 10  1  0
  9 21  1  0
  9 22  1  0
 10 23  1  0
 11 12  2  0
 11 13  1  0
 13 14  1  0
M  END
>  <i_m_ct_stereo_status>  (290) 
1

>  <s_m_source_file>  (290) 
/var/tmp/pbs.5076255.sched01/tmpnpseqx1a/1202b9de7rm.sdf

>  <i_m_source_file_index>  (290) 
16

>  <i_lp_mmshare_version>  (290) 
48012

>  <i_f3d_flags>  (290) 
0

>  <s_epik_input>  (290) 
Tz1jMVtjSF1bY0hdbihjKD1PKVtuSF0xKVtDSDJdT1tDSDJdW0NIMl1bT0hd

>  <s_epik_cmdline>  (290) 
J2VwaWtfcHl0aG9uJywgJy1waHQnLCAnMi4wJywgJy1waCcsICc3LjAnLCAnLXRuJywgJzgnLCAnLW1hJywgJzIwMCcsICctaW1hZScsICc8aW5maWxlLm1hZT4nLCAnLW9tYWUnLCAnPG91dGZpbGUubWFlPic=

>  <r_lp_tautomer_probability>  (290) 
0.999537

>  <r_epik_Ionization_Penalty>  (290) 
0.0025214

>  <r_epik_Ionization_Penalty_Charging>  (290) 
0.00252135

>  <r_epik_Ionization_Penalty_Neutral>  (290) 
5.3532e-08

>  <r_epik_State_Penalty>  (290) 
0.00174955

>  <r_epik_Charging_Adjusted_Penalty>  (290) 
0.00427089

>  <i_epik_Tot_Q>  (290) 
0

>  <i_epik_Tot_abs_Q>  (290) 
0

>  <s_epik_Chemistry_Notes>  (290) 
This compound contains an acetal/aminal-like group ( X-CH(R)-Y where X, Y are N, S, or O) that may be acid/base labile, releasing an aldehyde.

>  <s_lp_Force_Field>  (290) 
OPLS3e

>  <r_lp_Energy>  (290) 
21.1882

>  <b_lp_Chiralities_Consistent>  (290) 
1

>  <s_lp_Variant>  (290) 
100:0-1

>  <s_i_glide_gridfile>  (290) 
pfpi4k_grid

>  <i_i_glide_lignum>  (290) 
16

>  <i_i_glide_rotatable_bonds>  (290) 
5

>  <r_i_docking_score>  (290) 
-3.88877

>  <r_i_glide_ligand_efficiency>  (290) 
-0.299136

>  <r_i_glide_ligand_efficiency_sa>  (290) 
-0.70337

>  <r_i_glide_ligand_efficiency_ln>  (290) 
-1.09084

>  <r_i_glide_gscore>  (290) 
-3.88877

>  <r_i_glide_lipo>  (290) 
-0.239063

>  <r_i_glide_hbond>  (290) 
-0.327848

>  <r_i_glide_metal>  (290) 
-0

>  <r_i_glide_rewards>  (290) 
-2.22798

>  <r_i_glide_evdw>  (290) 
-20.1538

>  <r_i_glide_ecoul>  (290) 
-9.21444

>  <r_i_glide_erotb>  (290) 
1.37966

>  <r_i_glide_esite>  (290) 
-0.0836792

>  <r_i_glide_emodel>  (290) 
-36.3539

>  <r_i_glide_energy>  (290) 
-29.3683

>  <r_i_glide_einternal>  (290) 
1.81441

>  <r_i_glide_intrahb_reward>  (290) 
-0

>  <i_i_glide_confnum>  (290) 
1

>  <i_i_glide_posenum>  (290) 
18

>  <r_i_glide_eff_state_penalty>  (290) 
0

>  <ligand_id>  (290) 
100

>  <original_smiles>  (290) 
O=c1ccn(COCCO)c(=O)[nH]1

>  <smiles>  (290) 
[H]OC([H])([H])C([H])([H])OC([H])([H])n1c([H])c([H])c(=O)n([H])c1=O

$$$$
100:0:1
     RDKit          3D

 23 23  0  0  1  0  0  0  0  0999 V2000
    3.7986   -3.5216   -4.3221 O   0  0  0  0  0  0  0  0  0  0  0  0
    4.2432   -2.9380   -3.3461 C   0  0  0  0  0  0  0  0  0  0  0  0
    4.1127   -1.5074   -3.0940 C   0  0  0  0  0  0  0  0  0  0  0  0
    4.6857   -0.9416   -2.0123 C   0  0  0  0  0  0  0  0  0  0  0  0
    5.3860   -1.6795   -1.0702 N   0  0  0  0  0  0  0  0  0  0  0  0
    5.7620   -1.1136    0.2269 C   0  0  0  0  0  0  0  0  0  0  0  0
    4.7567   -1.3351    1.1837 O   0  0  0  0  0  0  0  0  0  0  0  0
    3.5071   -0.6965    0.9229 C   0  0  0  0  0  0  0  0  0  0  0  0
    2.4762   -1.1344    1.9539 C   0  0  0  0  0  0  0  0  0  0  0  0
    1.2471   -0.4810    1.6871 O   0  0  0  0  0  0  0  0  0  0  0  0
    5.5260   -3.0775   -1.2280 C   0  0  0  0  0  0  0  0  0  0  0  0
    6.0951   -3.7898   -0.4043 O   0  0  0  0  0  0  0  0  0  0  0  0
    4.9735   -3.6522   -2.3702 N   0  0  0  0  0  0  0  0  0  0  0  0
    5.0511   -4.6567   -2.5087 H   0  0  0  0  0  0  0  0  0  0  0  0
    3.5190   -0.8874   -3.7636 H   0  0  0  0  0  0  0  0  0  0  0  0
    4.5144    0.1158   -1.8718 H   0  0  0  0  0  0  0  0  0  0  0  0
    6.7081   -1.5499    0.5709 H   0  0  0  0  0  0  0  0  0  0  0  0
    5.9368   -0.0445    0.1177 H   0  0  0  0  0  0  0  0  0  0  0  0
    3.6417    0.3849    0.9155 H   0  0  0  0  0  0  0  0  0  0  0  0
    3.0659   -0.9831   -0.0331 H   0  0  0  0  0  0  0  0  0  0  0  0
    2.3340   -2.2136    1.8794 H   0  0  0  0  0  0  0  0  0  0  0  0
    2.8254   -0.8968    2.9594 H   0  0  0  0  0  0  0  0  0  0  0  0
    1.0140   -0.6183    0.7545 H   0  0  0  0  0  0  0  0  0  0  0  0
  1  2  2  0
  2 13  1  0
  2  3  1  0
  3  4  2  0
  3 15  1  0
  4  5  1  0
  4 16  1  0
  5  6  1  0
  5 11  1  0
  6  7  1  0
  6 17  1  0
  6 18  1  0
  7  8  1  0
  8  9  1  0
  8 19  1  0
  8 20  1  0
  9 10  1  0
  9 21  1  0
  9 22  1  0
 10 23  1  0
 11 12  2  0
 11 13  1  0
 13 14  1  0
M  END
>  <i_m_ct_stereo_status>  (291) 
1

>  <s_m_source_file>  (291) 
/var/tmp/pbs.5076255.sched01/tmpnpseqx1a/1202b9de7rm.sdf

>  <i_m_source_file_index>  (291) 
16

>  <i_lp_mmshare_version>  (291) 
48012

>  <i_f3d_flags>  (291) 
0

>  <s_epik_input>  (291) 
Tz1jMVtjSF1bY0hdbihjKD1PKVtuSF0xKVtDSDJdT1tDSDJdW0NIMl1bT0hd

>  <s_epik_cmdline>  (291) 
J2VwaWtfcHl0aG9uJywgJy1waHQnLCAnMi4wJywgJy1waCcsICc3LjAnLCAnLXRuJywgJzgnLCAnLW1hJywgJzIwMCcsICctaW1hZScsICc8aW5maWxlLm1hZT4nLCAnLW9tYWUnLCAnPG91dGZpbGUubWFlPic=

>  <r_lp_tautomer_probability>  (291) 
0.999537

>  <r_epik_Ionization_Penalty>  (291) 
0.0025214

>  <r_epik_Ionization_Penalty_Charging>  (291) 
0.00252135

>  <r_epik_Ionization_Penalty_Neutral>  (291) 
5.3532e-08

>  <r_epik_State_Penalty>  (291) 
0.00174955

>  <r_epik_Charging_Adjusted_Penalty>  (291) 
0.00427089

>  <i_epik_Tot_Q>  (291) 
0

>  <i_epik_Tot_abs_Q>  (291) 
0

>  <s_epik_Chemistry_Notes>  (291) 
This compound contains an acetal/aminal-like group ( X-CH(R)-Y where X, Y are N, S, or O) that may be acid/base labile, releasing an aldehyde.

>  <s_lp_Force_Field>  (291) 
OPLS3e

>  <r_lp_Energy>  (291) 
21.1882

>  <b_lp_Chiralities_Consistent>  (291) 
1

>  <s_lp_Variant>  (291) 
100:0-1

>  <s_i_glide_gridfile>  (291) 
pfpi4k_grid

>  <i_i_glide_lignum>  (291) 
16

>  <i_i_glide_rotatable_bonds>  (291) 
5

>  <r_i_docking_score>  (291) 
-3.63807

>  <r_i_glide_ligand_efficiency>  (291) 
-0.279851

>  <r_i_glide_ligand_efficiency_sa>  (291) 
-0.658024

>  <r_i_glide_ligand_efficiency_ln>  (291) 
-1.02051

>  <r_i_glide_gscore>  (291) 
-3.63807

>  <r_i_glide_lipo>  (291) 
-0.207037

>  <r_i_glide_hbond>  (291) 
-0.283462

>  <r_i_glide_metal>  (291) 
-0

>  <r_i_glide_rewards>  (291) 
-2.29036

>  <r_i_glide_evdw>  (291) 
-20.2037

>  <r_i_glide_ecoul>  (291) 
-7.89341

>  <r_i_glide_erotb>  (291) 
1.37966

>  <r_i_glide_esite>  (291) 
-0.0426669

>  <r_i_glide_emodel>  (291) 
-35.1392

>  <r_i_glide_energy>  (291) 
-28.0971

>  <r_i_glide_einternal>  (291) 
0.507502

>  <r_i_glide_intrahb_reward>  (291) 
-0

>  <i_i_glide_confnum>  (291) 
1

>  <i_i_glide_posenum>  (291) 
10

>  <r_i_glide_eff_state_penalty>  (291) 
0

>  <ligand_id>  (291) 
100

>  <original_smiles>  (291) 
O=c1ccn(COCCO)c(=O)[nH]1

>  <smiles>  (291) 
[H]OC([H])([H])C([H])([H])OC([H])([H])n1c([H])c([H])c(=O)n([H])c1=O

$$$$
100:0:2
     RDKit          3D

 23 23  0  0  1  0  0  0  0  0999 V2000
    3.7119   -3.4723   -4.2916 O   0  0  0  0  0  0  0  0  0  0  0  0
    4.1720   -2.8981   -3.3087 C   0  0  0  0  0  0  0  0  0  0  0  0
    4.1240   -1.4644   -3.1006 C   0  0  0  0  0  0  0  0  0  0  0  0
    4.7127   -0.9176   -2.0157 C   0  0  0  0  0  0  0  0  0  0  0  0
    5.3490   -1.6519   -1.0271 N   0  0  0  0  0  0  0  0  0  0  0  0
    5.7747   -1.0484    0.2405 C   0  0  0  0  0  0  0  0  0  0  0  0
    4.7286   -1.0387    1.1650 O   0  0  0  0  0  0  0  0  0  0  0  0
    3.6355   -0.1825    0.8356 C   0  0  0  0  0  0  0  0  0  0  0  0
    2.5822   -0.1650    1.9388 C   0  0  0  0  0  0  0  0  0  0  0  0
    1.6226   -1.1678    1.6800 O   0  0  0  0  0  0  0  0  0  0  0  0
    5.3947   -3.0586   -1.1454 C   0  0  0  0  0  0  0  0  0  0  0  0
    5.9244   -3.7861   -0.2991 O   0  0  0  0  0  0  0  0  0  0  0  0
    4.8231   -3.6163   -2.3002 N   0  0  0  0  0  0  0  0  0  0  0  0
    4.8365   -4.6256   -2.3839 H   0  0  0  0  0  0  0  0  0  0  0  0
    3.6060   -0.8240   -3.7897 H   0  0  0  0  0  0  0  0  0  0  0  0
    4.6228    0.1474   -1.9185 H   0  0  0  0  0  0  0  0  0  0  0  0
    6.6156   -1.5984    0.6666 H   0  0  0  0  0  0  0  0  0  0  0  0
    6.1331   -0.0366    0.0657 H   0  0  0  0  0  0  0  0  0  0  0  0
    4.0220    0.8261    0.6919 H   0  0  0  0  0  0  0  0  0  0  0  0
    3.1292   -0.4779   -0.0812 H   0  0  0  0  0  0  0  0  0  0  0  0
    3.0515   -0.2865    2.9174 H   0  0  0  0  0  0  0  0  0  0  0  0
    2.0665    0.7977    1.9268 H   0  0  0  0  0  0  0  0  0  0  0  0
    1.3160   -1.0580    0.7685 H   0  0  0  0  0  0  0  0  0  0  0  0
  1  2  2  0
  2 13  1  0
  2  3  1  0
  3  4  2  0
  3 15  1  0
  4  5  1  0
  4 16  1  0
  5  6  1  0
  5 11  1  0
  6  7  1  0
  6 17  1  0
  6 18  1  0
  7  8  1  0
  8  9  1  0
  8 19  1  0
  8 20  1  0
  9 10  1  0
  9 21  1  0
  9 22  1  0
 10 23  1  0
 11 12  2  0
 11 13  1  0
 13 14  1  0
M  END
>  <i_m_ct_stereo_status>  (292) 
1

>  <s_m_source_file>  (292) 
/var/tmp/pbs.5076255.sched01/tmpnpseqx1a/1202b9de7rm.sdf

>  <i_m_source_file_index>  (292) 
16

>  <i_lp_mmshare_version>  (292) 
48012

>  <i_f3d_flags>  (292) 
0

>  <s_epik_input>  (292) 
Tz1jMVtjSF1bY0hdbihjKD1PKVtuSF0xKVtDSDJdT1tDSDJdW0NIMl1bT0hd

>  <s_epik_cmdline>  (292) 
J2VwaWtfcHl0aG9uJywgJy1waHQnLCAnMi4wJywgJy1waCcsICc3LjAnLCAnLXRuJywgJzgnLCAnLW1hJywgJzIwMCcsICctaW1hZScsICc8aW5maWxlLm1hZT4nLCAnLW9tYWUnLCAnPG91dGZpbGUubWFlPic=

>  <r_lp_tautomer_probability>  (292) 
0.999537

>  <r_epik_Ionization_Penalty>  (292) 
0.0025214

>  <r_epik_Ionization_Penalty_Charging>  (292) 
0.00252135

>  <r_epik_Ionization_Penalty_Neutral>  (292) 
5.3532e-08

>  <r_epik_State_Penalty>  (292) 
0.00174955

>  <r_epik_Charging_Adjusted_Penalty>  (292) 
0.00427089

>  <i_epik_Tot_Q>  (292) 
0

>  <i_epik_Tot_abs_Q>  (292) 
0

>  <s_epik_Chemistry_Notes>  (292) 
This compound contains an acetal/aminal-like group ( X-CH(R)-Y where X, Y are N, S, or O) that may be acid/base labile, releasing an aldehyde.

>  <s_lp_Force_Field>  (292) 
OPLS3e

>  <r_lp_Energy>  (292) 
21.1882

>  <b_lp_Chiralities_Consistent>  (292) 
1

>  <s_lp_Variant>  (292) 
100:0-1

>  <s_i_glide_gridfile>  (292) 
pfpi4k_grid

>  <i_i_glide_lignum>  (292) 
16

>  <i_i_glide_rotatable_bonds>  (292) 
5

>  <r_i_docking_score>  (292) 
-3.34004

>  <r_i_glide_ligand_efficiency>  (292) 
-0.256926

>  <r_i_glide_ligand_efficiency_sa>  (292) 
-0.604119

>  <r_i_glide_ligand_efficiency_ln>  (292) 
-0.936911

>  <r_i_glide_gscore>  (292) 
-3.34004

>  <r_i_glide_lipo>  (292) 
-0.196116

>  <r_i_glide_hbond>  (292) 
-0.144258

>  <r_i_glide_metal>  (292) 
-0

>  <r_i_glide_rewards>  (292) 
-2.28795

>  <r_i_glide_evdw>  (292) 
-20.6855

>  <r_i_glide_ecoul>  (292) 
-6.77251

>  <r_i_glide_erotb>  (292) 
1.37966

>  <r_i_glide_esite>  (292) 
-0.0412207

>  <r_i_glide_emodel>  (292) 
-32.6314

>  <r_i_glide_energy>  (292) 
-27.458

>  <r_i_glide_einternal>  (292) 
2.78089

>  <r_i_glide_intrahb_reward>  (292) 
-0

>  <i_i_glide_confnum>  (292) 
4

>  <i_i_glide_posenum>  (292) 
15

>  <r_i_glide_eff_state_penalty>  (292) 
0

>  <ligand_id>  (292) 
100

>  <original_smiles>  (292) 
O=c1ccn(COCCO)c(=O)[nH]1

>  <smiles>  (292) 
[H]OC([H])([H])C([H])([H])OC([H])([H])n1c([H])c([H])c(=O)n([H])c1=O

$$$$
101:0:0
     RDKit          3D

 67 73  0  0  1  0  0  0  0  0999 V2000
   -0.0132   -5.9625    4.5199 C   0  0  0  0  0  0  0  0  0  0  0  0
    1.1465   -6.4938    5.1589 O   0  0  0  0  0  0  0  0  0  0  0  0
    2.0266   -7.3280    4.4010 C   0  0  2  0  0  0  0  0  0  0  0  0
    1.2223   -8.6388    4.1469 C   0  0  1  0  0  0  0  0  0  0  0  0
    1.9627   -9.8150    3.7500 O   0  0  0  0  0  0  0  0  0  0  0  0
    1.1917  -10.6234    4.6745 C   0  0  0  0  0  0  0  0  0  0  0  0
    0.5876   -9.3869    5.3195 C   0  0  1  0  0  0  0  0  0  0  0  0
    0.9351   -9.0074    6.7602 C   0  0  1  0  0  0  0  0  0  0  0  0
    0.2340   -9.8560    7.6469 O   0  0  0  0  0  0  0  0  0  0  0  0
    2.4271   -9.0382    7.1477 C   0  0  0  0  0  0  0  0  0  0  0  0
    3.4828   -8.7342    6.0610 C   0  0  0  0  0  0  0  0  0  0  0  0
    3.3583   -7.4304    5.2393 C   0  0  2  0  0  0  0  0  0  0  0  0
    3.9192   -6.1461    5.9563 C   0  0  2  0  0  0  0  0  0  0  0  0
    3.3612   -4.7013    5.9123 C   0  0  0  0  0  0  0  0  0  0  0  0
    4.4061   -3.8826    5.1643 C   0  0  1  0  0  0  0  0  0  0  0  0
    3.9682   -2.5843    4.4710 C   0  0  0  0  0  0  0  0  0  0  0  0
    5.1713   -1.7416    4.0109 C   0  0  0  0  0  0  0  0  0  0  0  0
    3.0108   -2.7907    3.2785 C   0  0  0  0  0  0  0  0  0  0  0  0
    3.2305   -1.8015    5.3924 O   0  0  0  0  0  0  0  0  0  0  0  0
    5.7071   -3.8390    5.7901 O   0  0  0  0  0  0  0  0  0  0  0  0
    5.5238   -4.7920    4.7332 C   0  0  1  0  0  0  0  0  0  0  0  0
    5.2013   -6.2029    5.1313 C   0  0  2  0  0  0  0  0  0  0  0  0
    4.5295   -7.2549    4.2282 C   0  0  2  0  0  0  0  0  0  0  0  0
    3.9461   -7.0686    2.8193 C   0  0  2  0  0  0  0  0  0  0  0  0
    3.9956   -8.4305    2.0796 C   0  0  0  0  0  0  0  0  0  0  0  0
    4.5594   -6.0155    1.8868 C   0  0  0  0  0  0  0  0  0  0  0  0
    3.6661   -5.8697    0.6304 C   0  0  0  0  0  0  0  0  0  0  0  0
    2.1651   -5.6720    0.9941 C   0  0  1  0  0  0  0  0  0  0  0  0
    1.4004   -5.7316   -0.1950 O   0  0  0  0  0  0  0  0  0  0  0  0
    1.7294   -6.6358    1.9171 O   0  0  0  0  0  0  0  0  0  0  0  0
    2.5111   -6.6153    3.1130 C   0  0  1  0  0  0  0  0  0  0  0  0
   -0.5812   -5.3958    5.2579 H   0  0  0  0  0  0  0  0  0  0  0  0
   -0.6782   -6.7319    4.1278 H   0  0  0  0  0  0  0  0  0  0  0  0
    0.2445   -5.2739    3.7149 H   0  0  0  0  0  0  0  0  0  0  0  0
    0.4434   -8.4656    3.4042 H   0  0  0  0  0  0  0  0  0  0  0  0
    0.4494  -11.2425    4.1746 H   0  0  0  0  0  0  0  0  0  0  0  0
    1.8094  -11.2046    5.3556 H   0  0  0  0  0  0  0  0  0  0  0  0
   -0.4884   -9.3969    5.1530 H   0  0  0  0  0  0  0  0  0  0  0  0
    0.5576   -8.0076    6.9699 H   0  0  0  0  0  0  0  0  0  0  0  0
    0.6055  -10.7401    7.5888 H   0  0  0  0  0  0  0  0  0  0  0  0
    2.5803   -8.3641    7.9897 H   0  0  0  0  0  0  0  0  0  0  0  0
    2.6639  -10.0344    7.5255 H   0  0  0  0  0  0  0  0  0  0  0  0
    4.4446   -8.7289    6.5782 H   0  0  0  0  0  0  0  0  0  0  0  0
    3.5991   -9.5954    5.4039 H   0  0  0  0  0  0  0  0  0  0  0  0
    4.1691   -6.4247    6.9832 H   0  0  0  0  0  0  0  0  0  0  0  0
    2.3908   -4.5870    5.4317 H   0  0  0  0  0  0  0  0  0  0  0  0
    3.2519   -4.2952    6.9186 H   0  0  0  0  0  0  0  0  0  0  0  0
    5.7982   -2.2902    3.3016 H   0  0  0  0  0  0  0  0  0  0  0  0
    5.7979   -1.4610    4.8611 H   0  0  0  0  0  0  0  0  0  0  0  0
    4.8545   -0.8186    3.5203 H   0  0  0  0  0  0  0  0  0  0  0  0
    3.4931   -3.3247    2.4652 H   0  0  0  0  0  0  0  0  0  0  0  0
    2.7053   -1.8385    2.8421 H   0  0  0  0  0  0  0  0  0  0  0  0
    2.1007   -3.3224    3.5537 H   0  0  0  0  0  0  0  0  0  0  0  0
    2.4182   -2.2367    5.5640 H   0  0  0  0  0  0  0  0  0  0  0  0
    6.1196   -4.6013    3.8508 H   0  0  0  0  0  0  0  0  0  0  0  0
    5.9840   -6.6696    5.7250 H   0  0  0  0  0  0  0  0  0  0  0  0
    5.2035   -8.1140    4.2700 H   0  0  0  0  0  0  0  0  0  0  0  0
    3.1602   -8.5641    1.3907 H   0  0  0  0  0  0  0  0  0  0  0  0
    3.9931   -9.2807    2.7580 H   0  0  0  0  0  0  0  0  0  0  0  0
    4.9105   -8.5244    1.4951 H   0  0  0  0  0  0  0  0  0  0  0  0
    4.6342   -5.0637    2.3830 H   0  0  0  0  0  0  0  0  0  0  0  0
    5.5761   -6.2802    1.5984 H   0  0  0  0  0  0  0  0  0  0  0  0
    3.9818   -5.0171    0.0336 H   0  0  0  0  0  0  0  0  0  0  0  0
    3.7646   -6.7511    0.0018 H   0  0  0  0  0  0  0  0  0  0  0  0
    1.9831   -4.6802    1.4040 H   0  0  0  0  0  0  0  0  0  0  0  0
    2.0011   -5.8568   -0.9125 H   0  0  0  0  0  0  0  0  0  0  0  0
    2.5824   -5.5737    3.4115 H   0  0  0  0  0  0  0  0  0  0  0  0
  1  2  1  0
  1 32  1  0
  1 33  1  0
  1 34  1  0
  3  2  1  1
  3 12  1  0
  3 31  1  0
  3  4  1  0
  4  7  1  0
  4  5  1  0
  4 35  1  6
  5  6  1  0
  6  7  1  0
  6 36  1  0
  6 37  1  0
  7  8  1  0
  7 38  1  1
  8  9  1  0
  8 10  1  0
  8 39  1  1
  9 40  1  0
 10 11  1  0
 10 41  1  0
 10 42  1  0
 12 11  1  1
 11 43  1  0
 11 44  1  0
 12 23  1  0
 12 13  1  0
 13 22  1  0
 13 14  1  0
 13 45  1  1
 14 15  1  0
 14 46  1  0
 14 47  1  0
 15 21  1  0
 15 16  1  6
 15 20  1  0
 16 17  1  0
 16 18  1  0
 16 19  1  0
 17 48  1  0
 17 49  1  0
 17 50  1  0
 18 51  1  0
 18 52  1  0
 18 53  1  0
 19 54  1  0
 20 21  1  0
 21 22  1  0
 21 55  1  6
 22 23  1  0
 22 56  1  1
 23 24  1  0
 23 57  1  6
 24 31  1  0
 24 25  1  6
 24 26  1  0
 25 58  1  0
 25 59  1  0
 25 60  1  0
 26 27  1  0
 26 61  1  0
 26 62  1  0
 27 28  1  0
 27 63  1  0
 27 64  1  0
 28 29  1  0
 28 30  1  0
 28 65  1  1
 29 66  1  0
 30 31  1  0
 31 67  1  1
M  END
>  <i_m_ct_stereo_status>  (293) 
1

>  <s_m_source_file>  (293) 
/var/tmp/pbs.5076255.sched01/tmpnpseqx1a/1202b9de7rm.sdf

>  <i_m_source_file_index>  (293) 
17

>  <i_lp_mmshare_version>  (293) 
48012

>  <i_f3d_flags>  (293) 
0

>  <s_epik_input>  (293) 
W0NIMl0xW0NIMl1bQ0BIXShbT0hdKVtDQEhdKFtDSDJdTzIpW0NASF0yW0NAXShbQ0BdMTM0KShPW0NIM10pW0NASF01W0NAQF0oW0NIM10pKFtDSDJdW0NIMl1bQ0BIXShPNSlbT0hdKVtDQEhdNFtDQEBIXTZbQ0BIXTNbQ0gyXVtDQEBdNyhbQ0BIXTZPNylDKFtDSDNdKShbQ0gzXSlbT0hd

>  <s_epik_cmdline>  (293) 
J2VwaWtfcHl0aG9uJywgJy1waHQnLCAnMi4wJywgJy1waCcsICc3LjAnLCAnLXRuJywgJzgnLCAnLW1hJywgJzIwMCcsICctaW1hZScsICc8aW5maWxlLm1hZT4nLCAnLW9tYWUnLCAnPG91dGZpbGUubWFlPic=

>  <r_lp_tautomer_probability>  (293) 
1

>  <r_epik_Ionization_Penalty>  (293) 
2.67368e-07

>  <r_epik_Ionization_Penalty_Charging>  (293) 
0

>  <r_epik_Ionization_Penalty_Neutral>  (293) 
2.67368e-07

>  <r_epik_State_Penalty>  (293) 
-0

>  <r_epik_Charging_Adjusted_Penalty>  (293) 
0

>  <i_epik_Tot_Q>  (293) 
0

>  <i_epik_Tot_abs_Q>  (293) 
0

>  <s_epik_Chemistry_Notes>  (293) 
This compound contains an acetal/aminal-like group ( X-CH(R)-Y where X, Y are N, S, or O) that may be acid/base labile, releasing an aldehyde.

>  <s_lp_Force_Field>  (293) 
OPLS3e

>  <r_lp_Energy>  (293) 
81.3888

>  <b_lp_Chiralities_Consistent>  (293) 
1

>  <s_lp_Variant>  (293) 
101:0-1

>  <s_i_glide_gridfile>  (293) 
pfpi4k_grid

>  <i_i_glide_lignum>  (293) 
17

>  <i_i_glide_rotatable_bonds>  (293) 
5

>  <r_i_docking_score>  (293) 
-3.02219

>  <r_i_glide_ligand_efficiency>  (293) 
-0.09749

>  <r_i_glide_ligand_efficiency_sa>  (293) 
-0.306253

>  <r_i_glide_ligand_efficiency_ln>  (293) 
-0.681596

>  <r_i_glide_gscore>  (293) 
-3.02219

>  <r_i_glide_lipo>  (293) 
-0.117106

>  <r_i_glide_hbond>  (293) 
-0.146457

>  <r_i_glide_metal>  (293) 
-0

>  <r_i_glide_rewards>  (293) 
-0.432692

>  <r_i_glide_evdw>  (293) 
-15.2068

>  <r_i_glide_ecoul>  (293) 
-10.8543

>  <r_i_glide_erotb>  (293) 
0.104603

>  <r_i_glide_esite>  (293) 
-0.0420521

>  <r_i_glide_emodel>  (293) 
-29.6821

>  <r_i_glide_energy>  (293) 
-26.0611

>  <r_i_glide_einternal>  (293) 
2.63597

>  <r_i_glide_intrahb_reward>  (293) 
-0

>  <i_i_glide_confnum>  (293) 
2

>  <i_i_glide_posenum>  (293) 
18

>  <r_i_glide_eff_state_penalty>  (293) 
0

>  <ligand_id>  (293) 
101

>  <original_smiles>  (293) 
COC12C3OCC3C(O)CCC13C1CC4(C(C)(C)O)OC4C1C3C1(C)CCC(O)OC12

>  <smiles>  (293) 
[H]OC1([H])OC2([H])C3(OC([H])([H])[H])C4([H])OC([H])([H])C4([H])C([H])(O[H])C([H])([H])C([H])([H])C34C3([H])C([H])([H])C5(C(O[H])(C([H])([H])[H])C([H])([H])[H])OC5([H])C3([H])C4([H])C2(C([H])([H])[H])C([H])([H])C1([H])[H]

$$$$
101:0:1
     RDKit          3D

 67 73  0  0  1  0  0  0  0  0999 V2000
    1.8528   -4.1987   -0.6166 C   0  0  0  0  0  0  0  0  0  0  0  0
    3.2620   -4.1928   -0.7127 O   0  0  0  0  0  0  0  0  0  0  0  0
    3.9835   -3.2612    0.0821 C   0  0  2  0  0  0  0  0  0  0  0  0
    3.7366   -1.8729   -0.5563 C   0  0  1  0  0  0  0  0  0  0  0  0
    4.6963   -0.8157   -0.2991 O   0  0  0  0  0  0  0  0  0  0  0  0
    4.7408   -0.5237   -1.7172 C   0  0  0  0  0  0  0  0  0  0  0  0
    3.8938   -1.7205   -2.0566 C   0  0  1  0  0  0  0  0  0  0  0  0
    4.4902   -2.8260   -2.8967 C   0  0  1  0  0  0  0  0  0  0  0  0
    4.4320   -2.3294   -4.2015 O   0  0  0  0  0  0  0  0  0  0  0  0
    5.9174   -3.2610   -2.4958 C   0  0  0  0  0  0  0  0  0  0  0  0
    6.3330   -3.2187   -0.9991 C   0  0  0  0  0  0  0  0  0  0  0  0
    5.4063   -3.8771    0.0561 C   0  0  2  0  0  0  0  0  0  0  0  0
    5.5633   -5.4282    0.1872 C   0  0  2  0  0  0  0  0  0  0  0  0
    4.4892   -6.5248    0.4133 C   0  0  0  0  0  0  0  0  0  0  0  0
    4.7674   -7.0761    1.7996 C   0  0  1  0  0  0  0  0  0  0  0  0
    3.5969   -7.7505    2.5311 C   0  0  0  0  0  0  0  0  0  0  0  0
    2.3322   -6.8839    2.5964 C   0  0  0  0  0  0  0  0  0  0  0  0
    3.2638   -9.1364    1.9671 C   0  0  0  0  0  0  0  0  0  0  0  0
    3.9264   -7.8910    3.8910 O   0  0  0  0  0  0  0  0  0  0  0  0
    6.0318   -7.7424    1.9474 O   0  0  0  0  0  0  0  0  0  0  0  0
    5.9520   -6.3764    2.4034 C   0  0  1  0  0  0  0  0  0  0  0  0
    6.3963   -5.2824    1.4485 C   0  0  2  0  0  0  0  0  0  0  0  0
    5.9610   -3.8018    1.4988 C   0  0  2  0  0  0  0  0  0  0  0  0
    4.8888   -3.1413    2.3849 C   0  0  2  0  0  0  0  0  0  0  0  0
    5.2326   -1.6385    2.5334 C   0  0  0  0  0  0  0  0  0  0  0  0
    4.5949   -3.7282    3.7708 C   0  0  0  0  0  0  0  0  0  0  0  0
    3.3600   -3.0123    4.3623 C   0  0  0  0  0  0  0  0  0  0  0  0
    2.1385   -3.0083    3.3840 C   0  0  1  0  0  0  0  0  0  0  0  0
    1.1146   -2.2043    3.8958 O   0  0  0  0  0  0  0  0  0  0  0  0
    2.5330   -2.5683    2.1044 O   0  0  0  0  0  0  0  0  0  0  0  0
    3.6084   -3.3400    1.5757 C   0  0  1  0  0  0  0  0  0  0  0  0
    1.3895   -4.8876   -1.3229 H   0  0  0  0  0  0  0  0  0  0  0  0
    1.4729   -3.1940   -0.7889 H   0  0  0  0  0  0  0  0  0  0  0  0
    1.5914   -4.5697    0.3655 H   0  0  0  0  0  0  0  0  0  0  0  0
    2.7393   -1.5047   -0.3214 H   0  0  0  0  0  0  0  0  0  0  0  0
    4.2260    0.3945   -2.0038 H   0  0  0  0  0  0  0  0  0  0  0  0
    5.7436   -0.5396   -2.1348 H   0  0  0  0  0  0  0  0  0  0  0  0
    2.9447   -1.3479   -2.4382 H   0  0  0  0  0  0  0  0  0  0  0  0
    3.8592   -3.7075   -2.9204 H   0  0  0  0  0  0  0  0  0  0  0  0
    3.5447   -2.0183   -4.3431 H   0  0  0  0  0  0  0  0  0  0  0  0
    6.0535   -4.2621   -2.8779 H   0  0  0  0  0  0  0  0  0  0  0  0
    6.6482   -2.6729   -3.0431 H   0  0  0  0  0  0  0  0  0  0  0  0
    7.3177   -3.6816   -0.9429 H   0  0  0  0  0  0  0  0  0  0  0  0
    6.5639   -2.1979   -0.7048 H   0  0  0  0  0  0  0  0  0  0  0  0
    6.2000   -5.7170   -0.6328 H   0  0  0  0  0  0  0  0  0  0  0  0
    3.4630   -6.2072    0.3011 H   0  0  0  0  0  0  0  0  0  0  0  0
    4.6150   -7.3318   -0.3069 H   0  0  0  0  0  0  0  0  0  0  0  0
    1.8951   -6.6584    1.6234 H   0  0  0  0  0  0  0  0  0  0  0  0
    2.5905   -5.9637    3.1082 H   0  0  0  0  0  0  0  0  0  0  0  0
    1.5494   -7.3708    3.1835 H   0  0  0  0  0  0  0  0  0  0  0  0
    2.9460   -9.0846    0.9220 H   0  0  0  0  0  0  0  0  0  0  0  0
    2.4388   -9.5657    2.5421 H   0  0  0  0  0  0  0  0  0  0  0  0
    4.1118   -9.8256    2.0333 H   0  0  0  0  0  0  0  0  0  0  0  0
    4.2245   -8.7855    4.0172 H   0  0  0  0  0  0  0  0  0  0  0  0
    6.0362   -6.2270    3.4779 H   0  0  0  0  0  0  0  0  0  0  0  0
    7.4509   -5.3141    1.1606 H   0  0  0  0  0  0  0  0  0  0  0  0
    6.8883   -3.2285    1.4901 H   0  0  0  0  0  0  0  0  0  0  0  0
    4.3422   -1.0120    2.6057 H   0  0  0  0  0  0  0  0  0  0  0  0
    5.8224   -1.2619    1.6998 H   0  0  0  0  0  0  0  0  0  0  0  0
    5.8224   -1.4654    3.4311 H   0  0  0  0  0  0  0  0  0  0  0  0
    4.3874   -4.7908    3.7174 H   0  0  0  0  0  0  0  0  0  0  0  0
    5.4653   -3.6208    4.4180 H   0  0  0  0  0  0  0  0  0  0  0  0
    3.0616   -3.5087    5.2847 H   0  0  0  0  0  0  0  0  0  0  0  0
    3.6097   -1.9809    4.6107 H   0  0  0  0  0  0  0  0  0  0  0  0
    1.6888   -4.0008    3.3053 H   0  0  0  0  0  0  0  0  0  0  0  0
    1.4800   -1.3339    4.0296 H   0  0  0  0  0  0  0  0  0  0  0  0
    3.3421   -4.3819    1.7028 H   0  0  0  0  0  0  0  0  0  0  0  0
  1  2  1  0
  1 32  1  0
  1 33  1  0
  1 34  1  0
  3  2  1  6
  3 12  1  0
  3 31  1  0
  3  4  1  0
  4  7  1  0
  4  5  1  0
  4 35  1  6
  5  6  1  0
  6  7  1  0
  6 36  1  0
  6 37  1  0
  7  8  1  0
  7 38  1  6
  8  9  1  0
  8 10  1  0
  8 39  1  6
  9 40  1  0
 10 11  1  0
 10 41  1  0
 10 42  1  0
 12 11  1  6
 11 43  1  0
 11 44  1  0
 12 23  1  0
 12 13  1  0
 13 22  1  0
 13 14  1  0
 13 45  1  6
 14 15  1  0
 14 46  1  0
 14 47  1  0
 15 21  1  0
 15 16  1  1
 15 20  1  0
 16 17  1  0
 16 18  1  0
 16 19  1  0
 17 48  1  0
 17 49  1  0
 17 50  1  0
 18 51  1  0
 18 52  1  0
 18 53  1  0
 19 54  1  0
 20 21  1  0
 21 22  1  0
 21 55  1  1
 22 23  1  0
 22 56  1  6
 23 24  1  0
 23 57  1  6
 24 31  1  0
 24 25  1  1
 24 26  1  0
 25 58  1  0
 25 59  1  0
 25 60  1  0
 26 27  1  0
 26 61  1  0
 26 62  1  0
 27 28  1  0
 27 63  1  0
 27 64  1  0
 28 29  1  0
 28 30  1  0
 28 65  1  6
 29 66  1  0
 30 31  1  0
 31 67  1  6
M  END
>  <i_m_ct_stereo_status>  (294) 
1

>  <s_m_source_file>  (294) 
/var/tmp/pbs.5076255.sched01/tmpnpseqx1a/1202b9de7rm.sdf

>  <i_m_source_file_index>  (294) 
17

>  <i_lp_mmshare_version>  (294) 
48012

>  <i_f3d_flags>  (294) 
0

>  <s_epik_input>  (294) 
W0NIMl0xW0NIMl1bQ0BIXShbT0hdKVtDQEhdKFtDSDJdTzIpW0NASF0yW0NAXShbQ0BdMTM0KShPW0NIM10pW0NASF01W0NAQF0oW0NIM10pKFtDSDJdW0NIMl1bQ0BIXShPNSlbT0hdKVtDQEhdNFtDQEBIXTZbQ0BIXTNbQ0gyXVtDQEBdNyhbQ0BIXTZPNylDKFtDSDNdKShbQ0gzXSlbT0hd

>  <s_epik_cmdline>  (294) 
J2VwaWtfcHl0aG9uJywgJy1waHQnLCAnMi4wJywgJy1waCcsICc3LjAnLCAnLXRuJywgJzgnLCAnLW1hJywgJzIwMCcsICctaW1hZScsICc8aW5maWxlLm1hZT4nLCAnLW9tYWUnLCAnPG91dGZpbGUubWFlPic=

>  <r_lp_tautomer_probability>  (294) 
1

>  <r_epik_Ionization_Penalty>  (294) 
2.67368e-07

>  <r_epik_Ionization_Penalty_Charging>  (294) 
0

>  <r_epik_Ionization_Penalty_Neutral>  (294) 
2.67368e-07

>  <r_epik_State_Penalty>  (294) 
-0

>  <r_epik_Charging_Adjusted_Penalty>  (294) 
0

>  <i_epik_Tot_Q>  (294) 
0

>  <i_epik_Tot_abs_Q>  (294) 
0

>  <s_epik_Chemistry_Notes>  (294) 
This compound contains an acetal/aminal-like group ( X-CH(R)-Y where X, Y are N, S, or O) that may be acid/base labile, releasing an aldehyde.

>  <s_lp_Force_Field>  (294) 
OPLS3e

>  <r_lp_Energy>  (294) 
81.3888

>  <b_lp_Chiralities_Consistent>  (294) 
1

>  <s_lp_Variant>  (294) 
101:0-1

>  <s_i_glide_gridfile>  (294) 
pfpi4k_grid

>  <i_i_glide_lignum>  (294) 
17

>  <i_i_glide_rotatable_bonds>  (294) 
5

>  <r_i_docking_score>  (294) 
-2.77529

>  <r_i_glide_ligand_efficiency>  (294) 
-0.0895254

>  <r_i_glide_ligand_efficiency_sa>  (294) 
-0.281233

>  <r_i_glide_ligand_efficiency_ln>  (294) 
-0.625913

>  <r_i_glide_gscore>  (294) 
-2.77529

>  <r_i_glide_lipo>  (294) 
-1.14077

>  <r_i_glide_hbond>  (294) 
-0.318287

>  <r_i_glide_metal>  (294) 
-0

>  <r_i_glide_rewards>  (294) 
-0.436317

>  <r_i_glide_evdw>  (294) 
-16.2048

>  <r_i_glide_ecoul>  (294) 
-1.16185

>  <r_i_glide_erotb>  (294) 
0.104603

>  <r_i_glide_esite>  (294) 
0

>  <r_i_glide_emodel>  (294) 
-16.6617

>  <r_i_glide_energy>  (294) 
-17.3667

>  <r_i_glide_einternal>  (294) 
7.31088

>  <r_i_glide_intrahb_reward>  (294) 
-0

>  <i_i_glide_confnum>  (294) 
6

>  <i_i_glide_posenum>  (294) 
6

>  <r_i_glide_eff_state_penalty>  (294) 
0

>  <ligand_id>  (294) 
101

>  <original_smiles>  (294) 
COC12C3OCC3C(O)CCC13C1CC4(C(C)(C)O)OC4C1C3C1(C)CCC(O)OC12

>  <smiles>  (294) 
[H]OC1([H])OC2([H])C3(OC([H])([H])[H])C4([H])OC([H])([H])C4([H])C([H])(O[H])C([H])([H])C([H])([H])C34C3([H])C([H])([H])C5(C(O[H])(C([H])([H])[H])C([H])([H])[H])OC5([H])C3([H])C4([H])C2(C([H])([H])[H])C([H])([H])C1([H])[H]

$$$$
101:0:2
     RDKit          3D

 67 73  0  0  1  0  0  0  0  0999 V2000
    1.6665   -4.6949   -0.5695 C   0  0  0  0  0  0  0  0  0  0  0  0
    3.0797   -4.6543   -0.5294 O   0  0  0  0  0  0  0  0  0  0  0  0
    3.7348   -3.8156    0.3860 C   0  0  2  0  0  0  0  0  0  0  0  0
    3.4887   -2.3762   -0.1642 C   0  0  1  0  0  0  0  0  0  0  0  0
    4.4002   -1.3241    0.2375 O   0  0  0  0  0  0  0  0  0  0  0  0
    4.6083   -0.9143   -1.1339 C   0  0  0  0  0  0  0  0  0  0  0  0
    3.7646   -2.0753   -1.6408 C   0  0  1  0  0  0  0  0  0  0  0  0
    4.4500   -3.0842   -2.5236 C   0  0  1  0  0  0  0  0  0  0  0  0
    4.5435   -2.5334   -3.8183 O   0  0  0  0  0  0  0  0  0  0  0  0
    5.8522   -3.4827   -2.0526 C   0  0  0  0  0  0  0  0  0  0  0  0
    6.1570   -3.5825   -0.5190 C   0  0  0  0  0  0  0  0  0  0  0  0
    5.2113   -4.3725    0.4047 C   0  0  2  0  0  0  0  0  0  0  0  0
    5.4730   -5.9324    0.4176 C   0  0  2  0  0  0  0  0  0  0  0  0
    4.4177   -7.0607    0.5032 C   0  0  0  0  0  0  0  0  0  0  0  0
    4.5759   -7.6954    1.8760 C   0  0  1  0  0  0  0  0  0  0  0  0
    3.3849   -8.4776    2.4775 C   0  0  0  0  0  0  0  0  0  0  0  0
    2.0319   -7.7620    2.3611 C   0  0  0  0  0  0  0  0  0  0  0  0
    3.2676   -9.9001    1.9225 C   0  0  0  0  0  0  0  0  0  0  0  0
    3.5929   -8.5628    3.8728 O   0  0  0  0  0  0  0  0  0  0  0  0
    5.8671   -8.3170    2.0866 O   0  0  0  0  0  0  0  0  0  0  0  0
    5.6628   -6.9920    2.6304 C   0  0  1  0  0  0  0  0  0  0  0  0
    6.1505   -5.8309    1.7879 C   0  0  2  0  0  0  0  0  0  0  0  0
    5.6425   -4.3784    1.9015 C   0  0  2  0  0  0  0  0  0  0  0  0
    4.4727   -3.8419    2.7567 C   0  0  2  0  0  0  0  0  0  0  0  0
    4.7464   -2.3390    3.0543 C   0  0  0  0  0  0  0  0  0  0  0  0
    4.0982   -4.5458    4.0705 C   0  0  0  0  0  0  0  0  0  0  0  0
    2.8063   -3.9139    4.6407 C   0  0  0  0  0  0  0  0  0  0  0  0
    1.6745   -3.8900    3.5725 C   0  0  1  0  0  0  0  0  0  0  0  0
    0.5906   -3.1486    4.0839 O   0  0  0  0  0  0  0  0  0  0  0  0
    2.1230   -3.3403    2.3667 O   0  0  0  0  0  0  0  0  0  0  0  0
    3.2535   -4.0250    1.8485 C   0  0  1  0  0  0  0  0  0  0  0  0
    1.2803   -5.3610   -1.3296 H   0  0  0  0  0  0  0  0  0  0  0  0
    1.2639   -3.7098   -0.7803 H   0  0  0  0  0  0  0  0  0  0  0  0
    1.3199   -5.0820    0.3841 H   0  0  0  0  0  0  0  0  0  0  0  0
    2.4648   -2.0750    0.0570 H   0  0  0  0  0  0  0  0  0  0  0  0
    4.1859    0.0480   -1.3666 H   0  0  0  0  0  0  0  0  0  0  0  0
    5.6610   -0.9630   -1.4405 H   0  0  0  0  0  0  0  0  0  0  0  0
    2.8096   -1.7254   -2.0575 H   0  0  0  0  0  0  0  0  0  0  0  0
    3.8639   -3.9906   -2.6400 H   0  0  0  0  0  0  0  0  0  0  0  0
    3.6741   -2.2299   -4.0441 H   0  0  0  0  0  0  0  0  0  0  0  0
    5.9509   -4.4385   -2.5472 H   0  0  0  0  0  0  0  0  0  0  0  0
    6.5973   -2.8085   -2.4927 H   0  0  0  0  0  0  0  0  0  0  0  0
    7.1430   -4.0226   -0.4342 H   0  0  0  0  0  0  0  0  0  0  0  0
    6.3439   -2.6011   -0.0939 H   0  0  0  0  0  0  0  0  0  0  0  0
    6.2384   -6.1496   -0.3291 H   0  0  0  0  0  0  0  0  0  0  0  0
    3.4042   -6.7539    0.3488 H   0  0  0  0  0  0  0  0  0  0  0  0
    4.6229   -7.7974   -0.2585 H   0  0  0  0  0  0  0  0  0  0  0  0
    1.7022   -7.6225    1.3266 H   0  0  0  0  0  0  0  0  0  0  0  0
    2.1115   -6.7968    2.8541 H   0  0  0  0  0  0  0  0  0  0  0  0
    1.2566   -8.3376    2.8751 H   0  0  0  0  0  0  0  0  0  0  0  0
    3.0848   -9.8846    0.8456 H   0  0  0  0  0  0  0  0  0  0  0  0
    2.4263  -10.4056    2.3986 H   0  0  0  0  0  0  0  0  0  0  0  0
    4.1623  -10.4958    2.1093 H   0  0  0  0  0  0  0  0  0  0  0  0
    4.3416   -9.1187    4.0006 H   0  0  0  0  0  0  0  0  0  0  0  0
    5.6684   -6.9420    3.7298 H   0  0  0  0  0  0  0  0  0  0  0  0
    7.2215   -5.8047    1.6202 H   0  0  0  0  0  0  0  0  0  0  0  0
    6.5356   -3.7590    2.0254 H   0  0  0  0  0  0  0  0  0  0  0  0
    3.8278   -1.7550    3.1072 H   0  0  0  0  0  0  0  0  0  0  0  0
    5.3713   -1.8826    2.2904 H   0  0  0  0  0  0  0  0  0  0  0  0
    5.2775   -2.2141    3.9987 H   0  0  0  0  0  0  0  0  0  0  0  0
    3.9236   -5.6061    3.9134 H   0  0  0  0  0  0  0  0  0  0  0  0
    4.9176   -4.4713    4.7861 H   0  0  0  0  0  0  0  0  0  0  0  0
    2.4625   -4.4936    5.4993 H   0  0  0  0  0  0  0  0  0  0  0  0
    2.9921   -2.8912    4.9674 H   0  0  0  0  0  0  0  0  0  0  0  0
    1.2993   -4.8926    3.3820 H   0  0  0  0  0  0  0  0  0  0  0  0
   -0.0840   -3.1803    3.4175 H   0  0  0  0  0  0  0  0  0  0  0  0
    3.0054   -5.0813    1.8781 H   0  0  0  0  0  0  0  0  0  0  0  0
  1  2  1  0
  1 32  1  0
  1 33  1  0
  1 34  1  0
  3  2  1  6
  3 12  1  0
  3 31  1  0
  3  4  1  0
  4  7  1  0
  4  5  1  0
  4 35  1  6
  5  6  1  0
  6  7  1  0
  6 36  1  0
  6 37  1  0
  7  8  1  0
  7 38  1  6
  8  9  1  0
  8 10  1  0
  8 39  1  6
  9 40  1  0
 10 11  1  0
 10 41  1  0
 10 42  1  0
 12 11  1  6
 11 43  1  0
 11 44  1  0
 12 23  1  0
 12 13  1  0
 13 22  1  0
 13 14  1  0
 13 45  1  6
 14 15  1  0
 14 46  1  0
 14 47  1  0
 15 21  1  0
 15 16  1  1
 15 20  1  0
 16 17  1  0
 16 18  1  0
 16 19  1  0
 17 48  1  0
 17 49  1  0
 17 50  1  0
 18 51  1  0
 18 52  1  0
 18 53  1  0
 19 54  1  0
 20 21  1  0
 21 22  1  0
 21 55  1  1
 22 23  1  0
 22 56  1  6
 23 24  1  0
 23 57  1  6
 24 31  1  0
 24 25  1  1
 24 26  1  0
 25 58  1  0
 25 59  1  0
 25 60  1  0
 26 27  1  0
 26 61  1  0
 26 62  1  0
 27 28  1  0
 27 63  1  0
 27 64  1  0
 28 29  1  0
 28 30  1  0
 28 65  1  6
 29 66  1  0
 30 31  1  0
 31 67  1  6
M  END
>  <i_m_ct_stereo_status>  (295) 
1

>  <s_m_source_file>  (295) 
/var/tmp/pbs.5076255.sched01/tmpnpseqx1a/1202b9de7rm.sdf

>  <i_m_source_file_index>  (295) 
17

>  <i_lp_mmshare_version>  (295) 
48012

>  <i_f3d_flags>  (295) 
0

>  <s_epik_input>  (295) 
W0NIMl0xW0NIMl1bQ0BIXShbT0hdKVtDQEhdKFtDSDJdTzIpW0NASF0yW0NAXShbQ0BdMTM0KShPW0NIM10pW0NASF01W0NAQF0oW0NIM10pKFtDSDJdW0NIMl1bQ0BIXShPNSlbT0hdKVtDQEhdNFtDQEBIXTZbQ0BIXTNbQ0gyXVtDQEBdNyhbQ0BIXTZPNylDKFtDSDNdKShbQ0gzXSlbT0hd

>  <s_epik_cmdline>  (295) 
J2VwaWtfcHl0aG9uJywgJy1waHQnLCAnMi4wJywgJy1waCcsICc3LjAnLCAnLXRuJywgJzgnLCAnLW1hJywgJzIwMCcsICctaW1hZScsICc8aW5maWxlLm1hZT4nLCAnLW9tYWUnLCAnPG91dGZpbGUubWFlPic=

>  <r_lp_tautomer_probability>  (295) 
1

>  <r_epik_Ionization_Penalty>  (295) 
2.67368e-07

>  <r_epik_Ionization_Penalty_Charging>  (295) 
0

>  <r_epik_Ionization_Penalty_Neutral>  (295) 
2.67368e-07

>  <r_epik_State_Penalty>  (295) 
-0

>  <r_epik_Charging_Adjusted_Penalty>  (295) 
0

>  <i_epik_Tot_Q>  (295) 
0

>  <i_epik_Tot_abs_Q>  (295) 
0

>  <s_epik_Chemistry_Notes>  (295) 
This compound contains an acetal/aminal-like group ( X-CH(R)-Y where X, Y are N, S, or O) that may be acid/base labile, releasing an aldehyde.

>  <s_lp_Force_Field>  (295) 
OPLS3e

>  <r_lp_Energy>  (295) 
81.3888

>  <b_lp_Chiralities_Consistent>  (295) 
1

>  <s_lp_Variant>  (295) 
101:0-1

>  <s_i_glide_gridfile>  (295) 
pfpi4k_grid

>  <i_i_glide_lignum>  (295) 
17

>  <i_i_glide_rotatable_bonds>  (295) 
5

>  <r_i_docking_score>  (295) 
-2.4528

>  <r_i_glide_ligand_efficiency>  (295) 
-0.0791224

>  <r_i_glide_ligand_efficiency_sa>  (295) 
-0.248554

>  <r_i_glide_ligand_efficiency_ln>  (295) 
-0.553181

>  <r_i_glide_gscore>  (295) 
-2.4528

>  <r_i_glide_lipo>  (295) 
-0.783923

>  <r_i_glide_hbond>  (295) 
-0.064034

>  <r_i_glide_metal>  (295) 
-0

>  <r_i_glide_rewards>  (295) 
-0.436017

>  <r_i_glide_evdw>  (295) 
-15.4533

>  <r_i_glide_ecoul>  (295) 
-3.33841

>  <r_i_glide_erotb>  (295) 
0.104603

>  <r_i_glide_esite>  (295) 
0

>  <r_i_glide_emodel>  (295) 
-18.9038

>  <r_i_glide_energy>  (295) 
-18.7917

>  <r_i_glide_einternal>  (295) 
6.51931

>  <r_i_glide_intrahb_reward>  (295) 
-0

>  <i_i_glide_confnum>  (295) 
6

>  <i_i_glide_posenum>  (295) 
11

>  <r_i_glide_eff_state_penalty>  (295) 
0

>  <ligand_id>  (295) 
101

>  <original_smiles>  (295) 
COC12C3OCC3C(O)CCC13C1CC4(C(C)(C)O)OC4C1C3C1(C)CCC(O)OC12

>  <smiles>  (295) 
[H]OC1([H])OC2([H])C3(OC([H])([H])[H])C4([H])OC([H])([H])C4([H])C([H])(O[H])C([H])([H])C([H])([H])C34C3([H])C([H])([H])C5(C(O[H])(C([H])([H])[H])C([H])([H])[H])OC5([H])C3([H])C4([H])C2(C([H])([H])[H])C([H])([H])C1([H])[H]

$$$$
104:0:0
     RDKit          3D

 84 90  0  0  1  0  0  0  0  0999 V2000
    0.6962   -8.0437    2.5403 C   0  0  0  0  0  0  0  0  0  0  0  0
    1.6138   -6.9476    3.1253 C   0  0  2  0  0  0  0  0  0  0  0  0
    3.0706   -7.4137    3.0355 C   0  0  0  0  0  0  0  0  0  0  0  0
    4.0308   -6.3736    3.6153 C   0  0  0  0  0  0  0  0  0  0  0  0
    3.7160   -6.0063    5.0858 C   0  0  1  0  0  0  0  0  0  0  0  0
    3.9497   -7.2649    5.9667 C   0  0  0  0  0  0  0  0  0  0  0  0
    4.7507   -4.9916    5.5969 C   0  0  0  0  0  0  0  0  0  0  0  0
    4.5269   -3.5727    5.0831 C   0  0  0  0  0  0  0  0  0  0  0  0
    3.1659   -2.9654    5.5180 C   0  0  1  0  0  0  0  0  0  0  0  0
    3.1821   -2.9268    7.0756 C   0  0  0  0  0  0  0  0  0  0  0  0
    3.1619   -1.4923    4.8871 C   0  0  2  0  0  0  0  0  0  0  0  0
    3.5667   -0.3832    5.8862 C   0  0  0  0  0  0  0  0  0  0  0  0
    3.8013    0.9710    5.2059 C   0  0  1  0  0  0  0  0  0  0  0  0
    4.9791    0.8800    4.4430 O   0  0  0  0  0  0  0  0  0  0  0  0
    2.6656    1.4307    4.3439 C   0  0  2  0  0  0  0  0  0  0  0  0
    2.9387    2.7310    3.7402 O   0  0  0  0  0  0  0  0  0  0  0  0
    1.8628    2.7229    4.7114 C   0  0  1  0  0  0  0  0  0  0  0  0
    0.5669    2.9997    4.0603 C   0  0  2  0  0  0  0  0  0  0  0  0
   -0.4202    3.9635    4.7100 C   0  0  0  0  0  0  0  0  0  0  0  0
   -1.6723    3.5880    4.1333 O   0  0  0  0  0  0  0  0  0  0  0  0
   -1.5183    2.3765    3.3686 C   0  0  0  0  0  0  0  0  0  0  0  0
   -0.2314    1.7308    3.8896 C   0  0  2  0  0  0  0  0  0  0  0  0
   -0.5696    1.0003    5.2195 C   0  0  0  0  0  0  0  0  0  0  0  0
    0.5931    0.8491    2.9031 C   0  0  0  0  0  0  0  0  0  0  0  0
    2.0156    0.3829    3.4050 C   0  0  1  0  0  0  0  0  0  0  0  0
    2.8879    0.2572    2.1195 C   0  0  0  0  0  0  0  0  0  0  0  0
    1.8878   -1.0266    4.1394 C   0  0  1  0  0  0  0  0  0  0  0  0
    1.2925   -2.1339    3.2423 C   0  0  0  0  0  0  0  0  0  0  0  0
    1.7369   -3.5701    3.5320 C   0  0  0  0  0  0  0  0  0  0  0  0
    1.9826   -3.9027    5.0152 C   0  0  2  0  0  0  0  0  0  0  0  0
    0.6868   -3.5148    5.8062 C   0  0  0  0  0  0  0  0  0  0  0  0
    2.2439   -5.4791    5.2433 C   0  0  1  0  0  0  0  0  0  0  0  0
    1.2527   -6.5325    4.5893 C   0  0  1  0  0  0  0  0  0  0  0  0
   -0.2465   -6.2616    4.7726 C   0  0  0  0  0  0  0  0  0  0  0  0
    0.6696   -8.9315    3.1721 H   0  0  0  0  0  0  0  0  0  0  0  0
    1.0432   -8.3565    1.5538 H   0  0  0  0  0  0  0  0  0  0  0  0
   -0.3277   -7.6928    2.4079 H   0  0  0  0  0  0  0  0  0  0  0  0
    1.5178   -6.1032    2.4474 H   0  0  0  0  0  0  0  0  0  0  0  0
    3.1933   -8.3699    3.5439 H   0  0  0  0  0  0  0  0  0  0  0  0
    3.3360   -7.5963    1.9920 H   0  0  0  0  0  0  0  0  0  0  0  0
    5.0573   -6.7297    3.5238 H   0  0  0  0  0  0  0  0  0  0  0  0
    3.9710   -5.4888    2.9867 H   0  0  0  0  0  0  0  0  0  0  0  0
    3.7854   -7.0530    7.0211 H   0  0  0  0  0  0  0  0  0  0  0  0
    4.9728   -7.6242    5.8709 H   0  0  0  0  0  0  0  0  0  0  0  0
    3.3104   -8.1074    5.7248 H   0  0  0  0  0  0  0  0  0  0  0  0
    4.7795   -4.9900    6.6842 H   0  0  0  0  0  0  0  0  0  0  0  0
    5.7504   -5.3138    5.2965 H   0  0  0  0  0  0  0  0  0  0  0  0
    5.3519   -2.9446    5.4242 H   0  0  0  0  0  0  0  0  0  0  0  0
    4.6197   -3.5840    4.0009 H   0  0  0  0  0  0  0  0  0  0  0  0
    2.4137   -2.2804    7.4975 H   0  0  0  0  0  0  0  0  0  0  0  0
    4.1402   -2.5839    7.4658 H   0  0  0  0  0  0  0  0  0  0  0  0
    3.0245   -3.9109    7.5138 H   0  0  0  0  0  0  0  0  0  0  0  0
    3.9331   -1.4965    4.1192 H   0  0  0  0  0  0  0  0  0  0  0  0
    2.7690   -0.2361    6.6110 H   0  0  0  0  0  0  0  0  0  0  0  0
    4.4669   -0.6444    6.4437 H   0  0  0  0  0  0  0  0  0  0  0  0
    3.9685    1.7193    5.9722 H   0  0  0  0  0  0  0  0  0  0  0  0
    4.9946    1.6391    3.8949 H   0  0  0  0  0  0  0  0  0  0  0  0
    2.1129    3.2253    5.6335 H   0  0  0  0  0  0  0  0  0  0  0  0
    0.7724    3.4096    3.0703 H   0  0  0  0  0  0  0  0  0  0  0  0
   -0.4679    3.8374    5.7930 H   0  0  0  0  0  0  0  0  0  0  0  0
   -0.1844    5.0035    4.4955 H   0  0  0  0  0  0  0  0  0  0  0  0
   -2.3972    1.7445    3.4765 H   0  0  0  0  0  0  0  0  0  0  0  0
   -1.4209    2.6327    2.3146 H   0  0  0  0  0  0  0  0  0  0  0  0
   -1.0026    0.0198    5.0219 H   0  0  0  0  0  0  0  0  0  0  0  0
   -1.3046    1.5496    5.8122 H   0  0  0  0  0  0  0  0  0  0  0  0
    0.2968    0.8616    5.8680 H   0  0  0  0  0  0  0  0  0  0  0  0
   -0.0328    0.0143    2.6071 H   0  0  0  0  0  0  0  0  0  0  0  0
    0.7082    1.4211    1.9751 H   0  0  0  0  0  0  0  0  0  0  0  0
    2.3928   -0.3052    1.3254 H   0  0  0  0  0  0  0  0  0  0  0  0
    3.8564   -0.2029    2.2972 H   0  0  0  0  0  0  0  0  0  0  0  0
    3.0791    1.2424    1.6852 H   0  0  0  0  0  0  0  0  0  0  0  0
    1.1606   -0.8659    4.9150 H   0  0  0  0  0  0  0  0  0  0  0  0
    0.2167   -2.1038    3.3914 H   0  0  0  0  0  0  0  0  0  0  0  0
    1.4115   -1.9404    2.1773 H   0  0  0  0  0  0  0  0  0  0  0  0
    0.9783   -4.2106    3.1059 H   0  0  0  0  0  0  0  0  0  0  0  0
    2.6420   -3.7495    2.9592 H   0  0  0  0  0  0  0  0  0  0  0  0
   -0.2178   -3.6695    5.2272 H   0  0  0  0  0  0  0  0  0  0  0  0
    0.6567   -2.4723    6.1015 H   0  0  0  0  0  0  0  0  0  0  0  0
    0.5862   -4.0681    6.7390 H   0  0  0  0  0  0  0  0  0  0  0  0
    2.0527   -5.6033    6.3078 H   0  0  0  0  0  0  0  0  0  0  0  0
    1.3713   -7.4433    5.1717 H   0  0  0  0  0  0  0  0  0  0  0  0
   -0.5826   -5.4904    4.0785 H   0  0  0  0  0  0  0  0  0  0  0  0
   -0.4897   -5.9606    5.7906 H   0  0  0  0  0  0  0  0  0  0  0  0
   -0.8436   -7.1504    4.5743 H   0  0  0  0  0  0  0  0  0  0  0  0
  1  2  1  0
  1 35  1  0
  1 36  1  0
  1 37  1  0
  2 33  1  0
  2  3  1  0
  2 38  1  6
  3  4  1  0
  3 39  1  0
  3 40  1  0
  4  5  1  0
  4 41  1  0
  4 42  1  0
  5 32  1  0
  5  6  1  1
  5  7  1  0
  6 43  1  0
  6 44  1  0
  6 45  1  0
  7  8  1  0
  7 46  1  0
  7 47  1  0
  8  9  1  0
  8 48  1  0
  8 49  1  0
  9 30  1  0
  9 10  1  1
  9 11  1  0
 10 50  1  0
 10 51  1  0
 10 52  1  0
 11 27  1  0
 11 12  1  0
 11 53  1  6
 12 13  1  0
 12 54  1  0
 12 55  1  0
 13 14  1  0
 13 15  1  0
 13 56  1  1
 14 57  1  0
 15 17  1  0
 15 25  1  0
 15 16  1  6
 16 17  1  0
 17 18  1  0
 17 58  1  1
 18 22  1  0
 18 19  1  0
 18 59  1  6
 19 20  1  0
 19 60  1  0
 19 61  1  0
 20 21  1  0
 21 22  1  0
 21 62  1  0
 21 63  1  0
 22 23  1  1
 22 24  1  0
 23 64  1  0
 23 65  1  0
 23 66  1  0
 24 25  1  0
 24 67  1  0
 24 68  1  0
 25 26  1  6
 25 27  1  0
 26 69  1  0
 26 70  1  0
 26 71  1  0
 27 28  1  0
 27 72  1  1
 28 29  1  0
 28 73  1  0
 28 74  1  0
 29 30  1  0
 29 75  1  0
 29 76  1  0
 30 31  1  1
 30 32  1  0
 31 77  1  0
 31 78  1  0
 31 79  1  0
 32 33  1  0
 32 80  1  1
 33 34  1  0
 33 81  1  1
 34 82  1  0
 34 83  1  0
 34 84  1  0
M  END
>  <i_m_ct_stereo_status>  (296) 
1

>  <s_m_source_file>  (296) 
/var/tmp/pbs.5076255.sched01/tmpnpseqx1a/1202b9de7rm.sdf

>  <i_m_source_file_index>  (296) 
22

>  <i_lp_mmshare_version>  (296) 
48012

>  <i_f3d_flags>  (296) 
0

>  <s_epik_input>  (296) 
W0NIM11bQ0BIXTFbQ0BIXShbQ0gzXSlbQ0gyXVtDSDJdW0NAQF0oW0NIM10pKFtDSDJdW0NIMl0yKVtDQEhdMVtDQF0oW0NIM10pKFtDSDJdW0NIMl0zKVtDQF0yKFtDSDNdKVtDQEhdKFtDSDJdW0NASF00W09IXSlbQ0BIXTNbQ0BAXTUoW0NIM10pW0NIMl1bQ0BAXShbQ0gzXSkoW0NAQEhdNltDQEBIXShbQ0BAXTQ1NylPNylbQ0gyXU9bQ0gyXTY=

>  <s_epik_cmdline>  (296) 
J2VwaWtfcHl0aG9uJywgJy1waHQnLCAnMi4wJywgJy1waCcsICc3LjAnLCAnLXRuJywgJzgnLCAnLW1hJywgJzIwMCcsICctaW1hZScsICc8aW5maWxlLm1hZT4nLCAnLW9tYWUnLCAnPG91dGZpbGUubWFlPic=

>  <r_lp_tautomer_probability>  (296) 
1

>  <r_epik_Ionization_Penalty>  (296) 
2.64296e-07

>  <r_epik_Ionization_Penalty_Charging>  (296) 
0

>  <r_epik_Ionization_Penalty_Neutral>  (296) 
2.64296e-07

>  <r_epik_State_Penalty>  (296) 
-0

>  <r_epik_Charging_Adjusted_Penalty>  (296) 
0

>  <i_epik_Tot_Q>  (296) 
0

>  <i_epik_Tot_abs_Q>  (296) 
0

>  <s_lp_Force_Field>  (296) 
OPLS3e

>  <r_lp_Energy>  (296) 
108.475

>  <b_lp_Chiralities_Consistent>  (296) 
1

>  <s_lp_Variant>  (296) 
104:0-1

>  <s_i_glide_gridfile>  (296) 
pfpi4k_grid

>  <i_i_glide_lignum>  (296) 
22

>  <i_i_glide_rotatable_bonds>  (296) 
1

>  <r_i_docking_score>  (296) 
-1.88026

>  <r_i_glide_ligand_efficiency>  (296) 
-0.0553018

>  <r_i_glide_ligand_efficiency_sa>  (296) 
-0.179156

>  <r_i_glide_ligand_efficiency_ln>  (296) 
-0.415403

>  <r_i_glide_gscore>  (296) 
-1.88026

>  <r_i_glide_lipo>  (296) 
-0.0718236

>  <r_i_glide_hbond>  (296) 
0

>  <r_i_glide_metal>  (296) 
-0

>  <r_i_glide_rewards>  (296) 
-0.199589

>  <r_i_glide_evdw>  (296) 
-26.6085

>  <r_i_glide_ecoul>  (296) 
-1.85616

>  <r_i_glide_erotb>  (296) 
0

>  <r_i_glide_esite>  (296) 
0

>  <r_i_glide_emodel>  (296) 
-31.0982

>  <r_i_glide_energy>  (296) 
-28.4647

>  <r_i_glide_einternal>  (296) 
0.65951

>  <r_i_glide_intrahb_reward>  (296) 
-0

>  <i_i_glide_confnum>  (296) 
2

>  <i_i_glide_posenum>  (296) 
21

>  <r_i_glide_eff_state_penalty>  (296) 
0

>  <ligand_id>  (296) 
104

>  <original_smiles>  (296) 
CC1CCC2(C)CCC3(C)C4CC(O)C56OC5C5COCC5(C)CC6(C)C4CCC3(C)C2C1C

>  <smiles>  (296) 
[H]OC1([H])C([H])([H])C2([H])C([H])(C([H])([H])C([H])([H])C3(C([H])([H])[H])C4([H])C([H])(C([H])([H])[H])C([H])(C([H])([H])[H])C([H])([H])C([H])([H])C4(C([H])([H])[H])C([H])([H])C([H])([H])C23C([H])([H])[H])C2(C([H])([H])[H])C([H])([H])C3(C([H])([H])[H])C([H])([H])OC([H])([H])C3([H])C3([H])OC132

$$$$
104:0:1
     RDKit          3D

 84 90  0  0  1  0  0  0  0  0999 V2000
    1.4512    1.2512    2.0837 C   0  0  0  0  0  0  0  0  0  0  0  0
    2.0170    0.3101    3.1653 C   0  0  2  0  0  0  0  0  0  0  0  0
    2.3613    1.1245    4.4199 C   0  0  0  0  0  0  0  0  0  0  0  0
    2.9350    0.2328    5.5256 C   0  0  0  0  0  0  0  0  0  0  0  0
    4.2040   -0.5407    5.0866 C   0  0  1  0  0  0  0  0  0  0  0  0
    5.3342    0.4817    4.7927 C   0  0  0  0  0  0  0  0  0  0  0  0
    4.7416   -1.3623    6.2719 C   0  0  0  0  0  0  0  0  0  0  0  0
    3.9258   -2.6184    6.5558 C   0  0  0  0  0  0  0  0  0  0  0  0
    3.9117   -3.6348    5.3819 C   0  0  1  0  0  0  0  0  0  0  0  0
    5.3973   -4.0469    5.1424 C   0  0  0  0  0  0  0  0  0  0  0  0
    3.0338   -4.8632    5.9159 C   0  0  2  0  0  0  0  0  0  0  0  0
    3.8667   -6.0592    6.4415 C   0  0  0  0  0  0  0  0  0  0  0  0
    3.0271   -7.0890    7.1976 C   0  0  1  0  0  0  0  0  0  0  0  0
    2.6204   -6.5051    8.4173 O   0  0  0  0  0  0  0  0  0  0  0  0
    1.8330   -7.6083    6.3965 C   0  0  2  0  0  0  0  0  0  0  0  0
    1.0943   -8.5934    7.1229 O   0  0  0  0  0  0  0  0  0  0  0  0
    1.7724   -9.0874    5.9718 C   0  0  1  0  0  0  0  0  0  0  0  0
    0.8062   -9.5204    4.9070 C   0  0  2  0  0  0  0  0  0  0  0  0
    1.0167  -10.8197    4.1458 C   0  0  0  0  0  0  0  0  0  0  0  0
    0.2530  -10.6094    2.9488 O   0  0  0  0  0  0  0  0  0  0  0  0
   -0.2301   -9.2554    2.8895 C   0  0  0  0  0  0  0  0  0  0  0  0
    0.6968   -8.4728    3.8290 C   0  0  2  0  0  0  0  0  0  0  0  0
    2.0213   -8.1953    3.0646 C   0  0  0  0  0  0  0  0  0  0  0  0
    0.1058   -7.2036    4.5042 C   0  0  0  0  0  0  0  0  0  0  0  0
    0.9931   -6.5318    5.6314 C   0  0  1  0  0  0  0  0  0  0  0  0
    0.0048   -5.8840    6.6410 C   0  0  0  0  0  0  0  0  0  0  0  0
    1.9238   -5.4278    4.9806 C   0  0  1  0  0  0  0  0  0  0  0  0
    1.1475   -4.3210    4.2243 C   0  0  0  0  0  0  0  0  0  0  0  0
    1.7932   -2.9310    4.2085 C   0  0  0  0  0  0  0  0  0  0  0  0
    3.3344   -2.9289    4.0743 C   0  0  2  0  0  0  0  0  0  0  0  0
    3.7187   -3.8003    2.8327 C   0  0  0  0  0  0  0  0  0  0  0  0
    3.9097   -1.4401    3.8209 C   0  0  1  0  0  0  0  0  0  0  0  0
    3.2442   -0.5371    2.6922 C   0  0  1  0  0  0  0  0  0  0  0  0
    3.0167   -1.2069    1.3226 C   0  0  0  0  0  0  0  0  0  0  0  0
    2.2150    1.9224    1.6885 H   0  0  0  0  0  0  0  0  0  0  0  0
    0.6477    1.8700    2.4862 H   0  0  0  0  0  0  0  0  0  0  0  0
    1.0224    0.6959    1.2490 H   0  0  0  0  0  0  0  0  0  0  0  0
    1.1948   -0.3441    3.4386 H   0  0  0  0  0  0  0  0  0  0  0  0
    3.0535    1.9279    4.1696 H   0  0  0  0  0  0  0  0  0  0  0  0
    1.4640    1.6172    4.7948 H   0  0  0  0  0  0  0  0  0  0  0  0
    3.1527    0.8451    6.4016 H   0  0  0  0  0  0  0  0  0  0  0  0
    2.1554   -0.4562    5.8400 H   0  0  0  0  0  0  0  0  0  0  0  0
    6.2615   -0.0133    4.5077 H   0  0  0  0  0  0  0  0  0  0  0  0
    5.5489    1.0930    5.6692 H   0  0  0  0  0  0  0  0  0  0  0  0
    5.0950    1.1740    3.9927 H   0  0  0  0  0  0  0  0  0  0  0  0
    5.7860   -1.6287    6.1073 H   0  0  0  0  0  0  0  0  0  0  0  0
    4.7530   -0.7402    7.1691 H   0  0  0  0  0  0  0  0  0  0  0  0
    4.3285   -3.0904    7.4525 H   0  0  0  0  0  0  0  0  0  0  0  0
    2.9150   -2.3237    6.8284 H   0  0  0  0  0  0  0  0  0  0  0  0
    5.5017   -4.9427    4.5312 H   0  0  0  0  0  0  0  0  0  0  0  0
    5.9306   -4.2275    6.0761 H   0  0  0  0  0  0  0  0  0  0  0  0
    5.9448   -3.2620    4.6279 H   0  0  0  0  0  0  0  0  0  0  0  0
    2.4814   -4.4882    6.7755 H   0  0  0  0  0  0  0  0  0  0  0  0
    4.3552   -6.5647    5.6100 H   0  0  0  0  0  0  0  0  0  0  0  0
    4.6631   -5.7247    7.1061 H   0  0  0  0  0  0  0  0  0  0  0  0
    3.6558   -7.9456    7.4329 H   0  0  0  0  0  0  0  0  0  0  0  0
    3.3869   -6.4073    8.9622 H   0  0  0  0  0  0  0  0  0  0  0  0
    2.6147   -9.7413    6.1806 H   0  0  0  0  0  0  0  0  0  0  0  0
   -0.1650   -9.6199    5.3969 H   0  0  0  0  0  0  0  0  0  0  0  0
    2.0670  -10.9795    3.8901 H   0  0  0  0  0  0  0  0  0  0  0  0
    0.6611  -11.6805    4.7148 H   0  0  0  0  0  0  0  0  0  0  0  0
   -0.2120   -8.8758    1.8681 H   0  0  0  0  0  0  0  0  0  0  0  0
   -1.2636   -9.2277    3.2425 H   0  0  0  0  0  0  0  0  0  0  0  0
    1.9165   -7.3352    2.4034 H   0  0  0  0  0  0  0  0  0  0  0  0
    2.3103   -9.0372    2.4327 H   0  0  0  0  0  0  0  0  0  0  0  0
    2.8661   -8.0161    3.7291 H   0  0  0  0  0  0  0  0  0  0  0  0
   -0.1692   -6.4916    3.7303 H   0  0  0  0  0  0  0  0  0  0  0  0
   -0.8469   -7.4953    4.9501 H   0  0  0  0  0  0  0  0  0  0  0  0
   -0.7613   -5.2851    6.1509 H   0  0  0  0  0  0  0  0  0  0  0  0
    0.4965   -5.2585    7.3823 H   0  0  0  0  0  0  0  0  0  0  0  0
   -0.5375   -6.6517    7.1909 H   0  0  0  0  0  0  0  0  0  0  0  0
    2.4800   -5.9442    4.2152 H   0  0  0  0  0  0  0  0  0  0  0  0
    1.0254   -4.6536    3.1932 H   0  0  0  0  0  0  0  0  0  0  0  0
    0.1348   -4.1995    4.5996 H   0  0  0  0  0  0  0  0  0  0  0  0
    1.3380   -2.4205    3.3670 H   0  0  0  0  0  0  0  0  0  0  0  0
    1.4892   -2.3917    5.1010 H   0  0  0  0  0  0  0  0  0  0  0  0
    2.9870   -3.7324    2.0319 H   0  0  0  0  0  0  0  0  0  0  0  0
    3.7980   -4.8587    3.0559 H   0  0  0  0  0  0  0  0  0  0  0  0
    4.6919   -3.5337    2.4193 H   0  0  0  0  0  0  0  0  0  0  0  0
    4.9100   -1.6276    3.4282 H   0  0  0  0  0  0  0  0  0  0  0  0
    4.0014    0.2039    2.4411 H   0  0  0  0  0  0  0  0  0  0  0  0
    2.1321   -1.8421    1.3164 H   0  0  0  0  0  0  0  0  0  0  0  0
    3.8815   -1.7903    1.0131 H   0  0  0  0  0  0  0  0  0  0  0  0
    2.8691   -0.4621    0.5411 H   0  0  0  0  0  0  0  0  0  0  0  0
  1  2  1  0
  1 35  1  0
  1 36  1  0
  1 37  1  0
  2 33  1  0
  2  3  1  0
  2 38  1  1
  3  4  1  0
  3 39  1  0
  3 40  1  0
  4  5  1  0
  4 41  1  0
  4 42  1  0
  5 32  1  0
  5  6  1  6
  5  7  1  0
  6 43  1  0
  6 44  1  0
  6 45  1  0
  7  8  1  0
  7 46  1  0
  7 47  1  0
  8  9  1  0
  8 48  1  0
  8 49  1  0
  9 30  1  0
  9 10  1  6
  9 11  1  0
 10 50  1  0
 10 51  1  0
 10 52  1  0
 11 27  1  0
 11 12  1  0
 11 53  1  1
 12 13  1  0
 12 54  1  0
 12 55  1  0
 13 14  1  0
 13 15  1  0
 13 56  1  1
 14 57  1  0
 15 17  1  0
 15 25  1  0
 15 16  1  1
 16 17  1  0
 17 18  1  0
 17 58  1  1
 18 22  1  0
 18 19  1  0
 18 59  1  1
 19 20  1  0
 19 60  1  0
 19 61  1  0
 20 21  1  0
 21 22  1  0
 21 62  1  0
 21 63  1  0
 22 23  1  6
 22 24  1  0
 23 64  1  0
 23 65  1  0
 23 66  1  0
 24 25  1  0
 24 67  1  0
 24 68  1  0
 25 26  1  1
 25 27  1  0
 26 69  1  0
 26 70  1  0
 26 71  1  0
 27 28  1  0
 27 72  1  6
 28 29  1  0
 28 73  1  0
 28 74  1  0
 29 30  1  0
 29 75  1  0
 29 76  1  0
 30 31  1  6
 30 32  1  0
 31 77  1  0
 31 78  1  0
 31 79  1  0
 32 33  1  0
 32 80  1  6
 33 34  1  0
 33 81  1  6
 34 82  1  0
 34 83  1  0
 34 84  1  0
M  END
>  <i_m_ct_stereo_status>  (297) 
1

>  <s_m_source_file>  (297) 
/var/tmp/pbs.5076255.sched01/tmpnpseqx1a/1202b9de7rm.sdf

>  <i_m_source_file_index>  (297) 
22

>  <i_lp_mmshare_version>  (297) 
48012

>  <i_f3d_flags>  (297) 
0

>  <s_epik_input>  (297) 
W0NIM11bQ0BIXTFbQ0BIXShbQ0gzXSlbQ0gyXVtDSDJdW0NAQF0oW0NIM10pKFtDSDJdW0NIMl0yKVtDQEhdMVtDQF0oW0NIM10pKFtDSDJdW0NIMl0zKVtDQF0yKFtDSDNdKVtDQEhdKFtDSDJdW0NASF00W09IXSlbQ0BIXTNbQ0BAXTUoW0NIM10pW0NIMl1bQ0BAXShbQ0gzXSkoW0NAQEhdNltDQEBIXShbQ0BAXTQ1NylPNylbQ0gyXU9bQ0gyXTY=

>  <s_epik_cmdline>  (297) 
J2VwaWtfcHl0aG9uJywgJy1waHQnLCAnMi4wJywgJy1waCcsICc3LjAnLCAnLXRuJywgJzgnLCAnLW1hJywgJzIwMCcsICctaW1hZScsICc8aW5maWxlLm1hZT4nLCAnLW9tYWUnLCAnPG91dGZpbGUubWFlPic=

>  <r_lp_tautomer_probability>  (297) 
1

>  <r_epik_Ionization_Penalty>  (297) 
2.64296e-07

>  <r_epik_Ionization_Penalty_Charging>  (297) 
0

>  <r_epik_Ionization_Penalty_Neutral>  (297) 
2.64296e-07

>  <r_epik_State_Penalty>  (297) 
-0

>  <r_epik_Charging_Adjusted_Penalty>  (297) 
0

>  <i_epik_Tot_Q>  (297) 
0

>  <i_epik_Tot_abs_Q>  (297) 
0

>  <s_lp_Force_Field>  (297) 
OPLS3e

>  <r_lp_Energy>  (297) 
108.475

>  <b_lp_Chiralities_Consistent>  (297) 
1

>  <s_lp_Variant>  (297) 
104:0-1

>  <s_i_glide_gridfile>  (297) 
pfpi4k_grid

>  <i_i_glide_lignum>  (297) 
22

>  <i_i_glide_rotatable_bonds>  (297) 
1

>  <r_i_docking_score>  (297) 
-1.8466

>  <r_i_glide_ligand_efficiency>  (297) 
-0.0543118

>  <r_i_glide_ligand_efficiency_sa>  (297) 
-0.175949

>  <r_i_glide_ligand_efficiency_ln>  (297) 
-0.407966

>  <r_i_glide_gscore>  (297) 
-1.8466

>  <r_i_glide_lipo>  (297) 
-0.149583

>  <r_i_glide_hbond>  (297) 
0

>  <r_i_glide_metal>  (297) 
-0

>  <r_i_glide_rewards>  (297) 
-0.199589

>  <r_i_glide_evdw>  (297) 
-28.296

>  <r_i_glide_ecoul>  (297) 
-0.550846

>  <r_i_glide_erotb>  (297) 
0

>  <r_i_glide_esite>  (297) 
0

>  <r_i_glide_emodel>  (297) 
-31.7138

>  <r_i_glide_energy>  (297) 
-28.8469

>  <r_i_glide_einternal>  (297) 
0.342841

>  <r_i_glide_intrahb_reward>  (297) 
-0

>  <i_i_glide_confnum>  (297) 
1

>  <i_i_glide_posenum>  (297) 
35

>  <r_i_glide_eff_state_penalty>  (297) 
0

>  <ligand_id>  (297) 
104

>  <original_smiles>  (297) 
CC1CCC2(C)CCC3(C)C4CC(O)C56OC5C5COCC5(C)CC6(C)C4CCC3(C)C2C1C

>  <smiles>  (297) 
[H]OC1([H])C([H])([H])C2([H])C([H])(C([H])([H])C([H])([H])C3(C([H])([H])[H])C4([H])C([H])(C([H])([H])[H])C([H])(C([H])([H])[H])C([H])([H])C([H])([H])C4(C([H])([H])[H])C([H])([H])C([H])([H])C23C([H])([H])[H])C2(C([H])([H])[H])C([H])([H])C3(C([H])([H])[H])C([H])([H])OC([H])([H])C3([H])C3([H])OC132

$$$$
104:0:2
     RDKit          3D

 84 90  0  0  1  0  0  0  0  0999 V2000
    1.4169    1.1607    2.0784 C   0  0  0  0  0  0  0  0  0  0  0  0
    1.9814    0.2498    3.1841 C   0  0  2  0  0  0  0  0  0  0  0  0
    2.2993    1.0985    4.4205 C   0  0  0  0  0  0  0  0  0  0  0  0
    2.8729    0.2431    5.5532 C   0  0  0  0  0  0  0  0  0  0  0  0
    4.1563   -0.5238    5.1467 C   0  0  1  0  0  0  0  0  0  0  0  0
    5.2763    0.5065    4.8402 C   0  0  0  0  0  0  0  0  0  0  0  0
    4.6895   -1.3090    6.3573 C   0  0  0  0  0  0  0  0  0  0  0  0
    3.8874   -2.5693    6.6631 C   0  0  0  0  0  0  0  0  0  0  0  0
    3.8996   -3.6124    5.5137 C   0  0  1  0  0  0  0  0  0  0  0  0
    5.3936   -4.0128    5.3022 C   0  0  0  0  0  0  0  0  0  0  0  0
    3.0287   -4.8378    6.0708 C   0  0  2  0  0  0  0  0  0  0  0  0
    3.8713   -6.0067    6.6367 C   0  0  0  0  0  0  0  0  0  0  0  0
    3.0420   -7.0412    7.3973 C   0  0  1  0  0  0  0  0  0  0  0  0
    2.5999   -6.4762    8.6109 O   0  0  0  0  0  0  0  0  0  0  0  0
    1.8626   -7.5890    6.6009 C   0  0  2  0  0  0  0  0  0  0  0  0
    1.1287   -8.5600    7.3525 O   0  0  0  0  0  0  0  0  0  0  0  0
    1.8190   -9.0794    6.2193 C   0  0  1  0  0  0  0  0  0  0  0  0
    0.8709   -9.5480    5.1533 C   0  0  2  0  0  0  0  0  0  0  0  0
    1.1091  -10.8625    4.4243 C   0  0  0  0  0  0  0  0  0  0  0  0
    0.3651  -10.6877    3.2105 O   0  0  0  0  0  0  0  0  0  0  0  0
   -0.1385   -9.3444    3.1138 C   0  0  0  0  0  0  0  0  0  0  0  0
    0.7646   -8.5274    4.0464 C   0  0  2  0  0  0  0  0  0  0  0  0
    2.0968   -8.2541    3.2931 C   0  0  0  0  0  0  0  0  0  0  0  0
    0.1494   -7.2509    4.6819 C   0  0  0  0  0  0  0  0  0  0  0  0
    1.0163   -6.5413    5.8027 C   0  0  1  0  0  0  0  0  0  0  0  0
    0.0063   -5.8831    6.7849 C   0  0  0  0  0  0  0  0  0  0  0  0
    1.9384   -5.4407    5.1349 C   0  0  1  0  0  0  0  0  0  0  0  0
    1.1568   -4.3632    4.3422 C   0  0  0  0  0  0  0  0  0  0  0  0
    1.7854   -2.9656    4.2990 C   0  0  0  0  0  0  0  0  0  0  0  0
    3.3270   -2.9468    4.1837 C   0  0  2  0  0  0  0  0  0  0  0  0
    3.7378   -3.8430    2.9685 C   0  0  0  0  0  0  0  0  0  0  0  0
    3.8881   -1.4573    3.9010 C   0  0  1  0  0  0  0  0  0  0  0  0
    3.2234   -0.5914    2.7435 C   0  0  1  0  0  0  0  0  0  0  0  0
    3.0195   -1.2969    1.3881 C   0  0  0  0  0  0  0  0  0  0  0  0
    2.1799    1.8328    1.6823 H   0  0  0  0  0  0  0  0  0  0  0  0
    0.5994    1.7802    2.4542 H   0  0  0  0  0  0  0  0  0  0  0  0
    1.0076    0.5815    1.2491 H   0  0  0  0  0  0  0  0  0  0  0  0
    1.1628   -0.4074    3.4616 H   0  0  0  0  0  0  0  0  0  0  0  0
    2.9827    1.9059    4.1577 H   0  0  0  0  0  0  0  0  0  0  0  0
    1.3912    1.5893    4.7717 H   0  0  0  0  0  0  0  0  0  0  0  0
    3.0734    0.8795    6.4154 H   0  0  0  0  0  0  0  0  0  0  0  0
    2.0981   -0.4470    5.8755 H   0  0  0  0  0  0  0  0  0  0  0  0
    6.2131    0.0157    4.5799 H   0  0  0  0  0  0  0  0  0  0  0  0
    5.4708    1.1419    5.7043 H   0  0  0  0  0  0  0  0  0  0  0  0
    5.0386    1.1765    4.0202 H   0  0  0  0  0  0  0  0  0  0  0  0
    5.7387   -1.5655    6.2126 H   0  0  0  0  0  0  0  0  0  0  0  0
    4.6809   -0.6665    7.2392 H   0  0  0  0  0  0  0  0  0  0  0  0
    4.2848   -3.0150    7.5754 H   0  0  0  0  0  0  0  0  0  0  0  0
    2.8692   -2.2817    6.9173 H   0  0  0  0  0  0  0  0  0  0  0  0
    5.5153   -4.9221    4.7139 H   0  0  0  0  0  0  0  0  0  0  0  0
    5.9155   -4.1666    6.2473 H   0  0  0  0  0  0  0  0  0  0  0  0
    5.9449   -3.2349    4.7778 H   0  0  0  0  0  0  0  0  0  0  0  0
    2.4616   -4.4507    6.9149 H   0  0  0  0  0  0  0  0  0  0  0  0
    4.3775   -6.5257    5.8240 H   0  0  0  0  0  0  0  0  0  0  0  0
    4.6501   -5.6462    7.3093 H   0  0  0  0  0  0  0  0  0  0  0  0
    3.6873   -7.8793    7.6510 H   0  0  0  0  0  0  0  0  0  0  0  0
    2.1935   -7.1680    9.1107 H   0  0  0  0  0  0  0  0  0  0  0  0
    2.6697   -9.7135    6.4501 H   0  0  0  0  0  0  0  0  0  0  0  0
   -0.1051   -9.6473    5.6325 H   0  0  0  0  0  0  0  0  0  0  0  0
    2.1640  -11.0149    4.1898 H   0  0  0  0  0  0  0  0  0  0  0  0
    0.7536  -11.7156    5.0052 H   0  0  0  0  0  0  0  0  0  0  0  0
   -0.1093   -8.9924    2.0821 H   0  0  0  0  0  0  0  0  0  0  0  0
   -1.1766   -9.3237    3.4510 H   0  0  0  0  0  0  0  0  0  0  0  0
    1.9903   -7.4119    2.6095 H   0  0  0  0  0  0  0  0  0  0  0  0
    2.4041   -9.1063    2.6850 H   0  0  0  0  0  0  0  0  0  0  0  0
    2.9318   -8.0481    3.9622 H   0  0  0  0  0  0  0  0  0  0  0  0
   -0.1245   -6.5629    3.8873 H   0  0  0  0  0  0  0  0  0  0  0  0
   -0.8049   -7.5442    5.1232 H   0  0  0  0  0  0  0  0  0  0  0  0
   -0.7602   -5.3057    6.2700 H   0  0  0  0  0  0  0  0  0  0  0  0
    0.4813   -5.2321    7.5164 H   0  0  0  0  0  0  0  0  0  0  0  0
   -0.5359   -6.6420    7.3476 H   0  0  0  0  0  0  0  0  0  0  0  0
    2.5098   -5.9688    4.3895 H   0  0  0  0  0  0  0  0  0  0  0  0
    1.0509   -4.7238    3.3183 H   0  0  0  0  0  0  0  0  0  0  0  0
    0.1373   -4.2454    4.7034 H   0  0  0  0  0  0  0  0  0  0  0  0
    1.3336   -2.4825    3.4404 H   0  0  0  0  0  0  0  0  0  0  0  0
    1.4648   -2.4093    5.1758 H   0  0  0  0  0  0  0  0  0  0  0  0
    3.0144   -3.8068    2.1583 H   0  0  0  0  0  0  0  0  0  0  0  0
    3.8293   -4.8944    3.2188 H   0  0  0  0  0  0  0  0  0  0  0  0
    4.7107   -3.5737    2.5584 H   0  0  0  0  0  0  0  0  0  0  0  0
    4.8943   -1.6416    3.5238 H   0  0  0  0  0  0  0  0  0  0  0  0
    3.9739    0.1524    2.4826 H   0  0  0  0  0  0  0  0  0  0  0  0
    2.1433   -1.9426    1.3873 H   0  0  0  0  0  0  0  0  0  0  0  0
    3.8945   -1.8782    1.1013 H   0  0  0  0  0  0  0  0  0  0  0  0
    2.8709   -0.5738    0.5864 H   0  0  0  0  0  0  0  0  0  0  0  0
  1  2  1  0
  1 35  1  0
  1 36  1  0
  1 37  1  0
  2 33  1  0
  2  3  1  0
  2 38  1  1
  3  4  1  0
  3 39  1  0
  3 40  1  0
  4  5  1  0
  4 41  1  0
  4 42  1  0
  5 32  1  0
  5  6  1  6
  5  7  1  0
  6 43  1  0
  6 44  1  0
  6 45  1  0
  7  8  1  0
  7 46  1  0
  7 47  1  0
  8  9  1  0
  8 48  1  0
  8 49  1  0
  9 30  1  0
  9 10  1  6
  9 11  1  0
 10 50  1  0
 10 51  1  0
 10 52  1  0
 11 27  1  0
 11 12  1  0
 11 53  1  1
 12 13  1  0
 12 54  1  0
 12 55  1  0
 13 14  1  0
 13 15  1  0
 13 56  1  1
 14 57  1  0
 15 17  1  0
 15 25  1  0
 15 16  1  1
 16 17  1  0
 17 18  1  0
 17 58  1  1
 18 22  1  0
 18 19  1  0
 18 59  1  1
 19 20  1  0
 19 60  1  0
 19 61  1  0
 20 21  1  0
 21 22  1  0
 21 62  1  0
 21 63  1  0
 22 23  1  6
 22 24  1  0
 23 64  1  0
 23 65  1  0
 23 66  1  0
 24 25  1  0
 24 67  1  0
 24 68  1  0
 25 26  1  1
 25 27  1  0
 26 69  1  0
 26 70  1  0
 26 71  1  0
 27 28  1  0
 27 72  1  6
 28 29  1  0
 28 73  1  0
 28 74  1  0
 29 30  1  0
 29 75  1  0
 29 76  1  0
 30 31  1  6
 30 32  1  0
 31 77  1  0
 31 78  1  0
 31 79  1  0
 32 33  1  0
 32 80  1  6
 33 34  1  0
 33 81  1  6
 34 82  1  0
 34 83  1  0
 34 84  1  0
M  END
>  <i_m_ct_stereo_status>  (298) 
1

>  <s_m_source_file>  (298) 
/var/tmp/pbs.5076255.sched01/tmpnpseqx1a/1202b9de7rm.sdf

>  <i_m_source_file_index>  (298) 
22

>  <i_lp_mmshare_version>  (298) 
48012

>  <i_f3d_flags>  (298) 
0

>  <s_epik_input>  (298) 
W0NIM11bQ0BIXTFbQ0BIXShbQ0gzXSlbQ0gyXVtDSDJdW0NAQF0oW0NIM10pKFtDSDJdW0NIMl0yKVtDQEhdMVtDQF0oW0NIM10pKFtDSDJdW0NIMl0zKVtDQF0yKFtDSDNdKVtDQEhdKFtDSDJdW0NASF00W09IXSlbQ0BIXTNbQ0BAXTUoW0NIM10pW0NIMl1bQ0BAXShbQ0gzXSkoW0NAQEhdNltDQEBIXShbQ0BAXTQ1NylPNylbQ0gyXU9bQ0gyXTY=

>  <s_epik_cmdline>  (298) 
J2VwaWtfcHl0aG9uJywgJy1waHQnLCAnMi4wJywgJy1waCcsICc3LjAnLCAnLXRuJywgJzgnLCAnLW1hJywgJzIwMCcsICctaW1hZScsICc8aW5maWxlLm1hZT4nLCAnLW9tYWUnLCAnPG91dGZpbGUubWFlPic=

>  <r_lp_tautomer_probability>  (298) 
1

>  <r_epik_Ionization_Penalty>  (298) 
2.64296e-07

>  <r_epik_Ionization_Penalty_Charging>  (298) 
0

>  <r_epik_Ionization_Penalty_Neutral>  (298) 
2.64296e-07

>  <r_epik_State_Penalty>  (298) 
-0

>  <r_epik_Charging_Adjusted_Penalty>  (298) 
0

>  <i_epik_Tot_Q>  (298) 
0

>  <i_epik_Tot_abs_Q>  (298) 
0

>  <s_lp_Force_Field>  (298) 
OPLS3e

>  <r_lp_Energy>  (298) 
108.475

>  <b_lp_Chiralities_Consistent>  (298) 
1

>  <s_lp_Variant>  (298) 
104:0-1

>  <s_i_glide_gridfile>  (298) 
pfpi4k_grid

>  <i_i_glide_lignum>  (298) 
22

>  <i_i_glide_rotatable_bonds>  (298) 
1

>  <r_i_docking_score>  (298) 
-1.81332

>  <r_i_glide_ligand_efficiency>  (298) 
-0.053333

>  <r_i_glide_ligand_efficiency_sa>  (298) 
-0.172778

>  <r_i_glide_ligand_efficiency_ln>  (298) 
-0.400613

>  <r_i_glide_gscore>  (298) 
-1.81332

>  <r_i_glide_lipo>  (298) 
-0.122858

>  <r_i_glide_hbond>  (298) 
0

>  <r_i_glide_metal>  (298) 
-0

>  <r_i_glide_rewards>  (298) 
-0.199589

>  <r_i_glide_evdw>  (298) 
-27.8304

>  <r_i_glide_ecoul>  (298) 
-0.66237

>  <r_i_glide_erotb>  (298) 
0

>  <r_i_glide_esite>  (298) 
0

>  <r_i_glide_emodel>  (298) 
-31.3265

>  <r_i_glide_energy>  (298) 
-28.4927

>  <r_i_glide_einternal>  (298) 
0.345626

>  <r_i_glide_intrahb_reward>  (298) 
-0

>  <i_i_glide_confnum>  (298) 
2

>  <i_i_glide_posenum>  (298) 
7

>  <r_i_glide_eff_state_penalty>  (298) 
0

>  <ligand_id>  (298) 
104

>  <original_smiles>  (298) 
CC1CCC2(C)CCC3(C)C4CC(O)C56OC5C5COCC5(C)CC6(C)C4CCC3(C)C2C1C

>  <smiles>  (298) 
[H]OC1([H])C([H])([H])C2([H])C([H])(C([H])([H])C([H])([H])C3(C([H])([H])[H])C4([H])C([H])(C([H])([H])[H])C([H])(C([H])([H])[H])C([H])([H])C([H])([H])C4(C([H])([H])[H])C([H])([H])C([H])([H])C23C([H])([H])[H])C2(C([H])([H])[H])C([H])([H])C3(C([H])([H])[H])C([H])([H])OC([H])([H])C3([H])C3([H])OC132

$$$$
106:0:0
     RDKit          3D

 36 39  0  0  1  0  0  0  0  0999 V2000
   -9.5698  -10.5505   -7.0935 C   0  0  0  0  0  0  0  0  0  0  0  0
   -9.6052   -9.3262   -7.9279 N   0  0  1  0  0  0  0  0  0  0  0  0
   -8.2218   -8.8729   -8.2418 C   0  0  0  0  0  0  0  0  0  0  0  0
   -8.0852   -7.4429   -8.8146 C   0  0  1  0  0  0  0  0  0  0  0  0
   -8.7047   -7.2615  -10.2120 C   0  0  0  0  0  0  0  0  0  0  0  0
  -10.2147   -7.0820  -10.1488 C   0  0  1  0  0  0  0  0  0  0  0  0
  -11.0855   -8.2578   -9.6852 C   0  0  2  0  0  0  0  0  0  0  0  0
  -11.8292   -7.3178   -8.7348 C   0  0  0  0  0  0  0  0  0  0  0  0
  -10.7888   -6.2315   -9.0059 C   0  0  1  0  0  0  0  0  0  0  0  0
   -9.8279   -5.7913   -7.9150 C   0  0  0  0  0  0  0  0  0  0  0  0
  -10.2083   -4.7850   -7.0047 C   0  0  0  0  0  0  0  0  0  0  0  0
   -9.3230   -4.3571   -6.0011 C   0  0  0  0  0  0  0  0  0  0  0  0
   -8.0404   -4.9281   -5.9111 C   0  0  0  0  0  0  0  0  0  0  0  0
   -7.6546   -5.9325   -6.8187 C   0  0  0  0  0  0  0  0  0  0  0  0
   -8.5420   -6.3691   -7.8264 C   0  0  0  0  0  0  0  0  0  0  0  0
  -10.4639   -9.5387   -9.1259 C   0  0  0  0  0  0  0  0  0  0  0  0
   -9.1246  -11.3784   -7.6458 H   0  0  0  0  0  0  0  0  0  0  0  0
  -10.5741  -10.8454   -6.7870 H   0  0  0  0  0  0  0  0  0  0  0  0
   -8.9833  -10.3940   -6.1865 H   0  0  0  0  0  0  0  0  0  0  0  0
   -7.6462   -8.8897   -7.3149 H   0  0  0  0  0  0  0  0  0  0  0  0
   -7.7373   -9.5896   -8.9052 H   0  0  0  0  0  0  0  0  0  0  0  0
   -7.0163   -7.2902   -8.9519 H   0  0  0  0  0  0  0  0  0  0  0  0
   -8.2675   -6.3687  -10.6644 H   0  0  0  0  0  0  0  0  0  0  0  0
   -8.4279   -8.0888  -10.8698 H   0  0  0  0  0  0  0  0  0  0  0  0
  -10.6137   -6.7137  -11.0988 H   0  0  0  0  0  0  0  0  0  0  0  0
  -11.7544   -8.5135  -10.5099 H   0  0  0  0  0  0  0  0  0  0  0  0
  -12.8219   -7.0586   -9.1119 H   0  0  0  0  0  0  0  0  0  0  0  0
  -11.8763   -7.6579   -7.6984 H   0  0  0  0  0  0  0  0  0  0  0  0
  -11.2874   -5.3530   -9.4114 H   0  0  0  0  0  0  0  0  0  0  0  0
  -11.1939   -4.3458   -7.0713 H   0  0  0  0  0  0  0  0  0  0  0  0
   -9.6258   -3.5965   -5.2976 H   0  0  0  0  0  0  0  0  0  0  0  0
   -7.3507   -4.5943   -5.1492 H   0  0  0  0  0  0  0  0  0  0  0  0
   -6.6598   -6.3497   -6.7533 H   0  0  0  0  0  0  0  0  0  0  0  0
   -9.9142  -10.0766   -9.8985 H   0  0  0  0  0  0  0  0  0  0  0  0
  -11.2900  -10.1962   -8.8497 H   0  0  0  0  0  0  0  0  0  0  0  0
  -10.0430   -8.6004   -7.3730 H   0  0  0  0  0  0  0  0  0  0  0  0
  1  2  1  0
  1 17  1  0
  1 18  1  0
  1 19  1  0
  2 16  1  0
  2  3  1  0
  2 36  1  1
  3  4  1  0
  3 20  1  0
  3 21  1  0
  4 15  1  0
  4  5  1  0
  4 22  1  6
  5  6  1  0
  5 23  1  0
  5 24  1  0
  6  9  1  0
  6  7  1  0
  6 25  1  6
  7  8  1  0
  7 16  1  0
  7 26  1  6
  8  9  1  0
  8 27  1  0
  8 28  1  0
  9 10  1  0
  9 29  1  6
 10 15  2  0
 10 11  1  0
 11 12  2  0
 11 30  1  0
 12 13  1  0
 12 31  1  0
 13 14  2  0
 13 32  1  0
 14 15  1  0
 14 33  1  0
 16 34  1  0
 16 35  1  0
M  CHG  1   2   1
M  END
>  <i_m_ct_stereo_status>  (299) 
1

>  <s_m_source_file>  (299) 
/var/tmp/pbs.5076255.sched01/tmpnpseqx1a/1202b9de7rm.sdf

>  <i_m_source_file_index>  (299) 
24

>  <i_lp_mmshare_version>  (299) 
48012

>  <i_f3d_flags>  (299) 
0

>  <s_epik_input>  (299) 
W0NIM11OKFtDSDJdMSlbQ0gyXVtDQEBIXShbQ0gyXTIpW0NASF0oW0NIMl0zKVtDQEBIXTJjKGM0W0NAQEhdMTMpW2NIXVtjSF1bY0hdW2NIXTQ=

>  <s_epik_cmdline>  (299) 
J2VwaWtfcHl0aG9uJywgJy1waHQnLCAnMi4wJywgJy1waCcsICc3LjAnLCAnLXRuJywgJzgnLCAnLW1hJywgJzIwMCcsICctaW1hZScsICc8aW5maWxlLm1hZT4nLCAnLW9tYWUnLCAnPG91dGZpbGUubWFlPic=

>  <r_epik_Ionization_Penalty>  (299) 
0.00271513

>  <r_epik_Ionization_Penalty_Charging>  (299) 
0.00271513

>  <r_epik_Ionization_Penalty_Neutral>  (299) 
0

>  <r_epik_State_Penalty>  (299) 
0.0018935

>  <r_epik_Charging_Adjusted_Penalty>  (299) 
0.00460864

>  <i_epik_Tot_Q>  (299) 
1

>  <i_epik_Tot_abs_Q>  (299) 
1

>  <s_lp_Force_Field>  (299) 
OPLS3e

>  <r_lp_Energy>  (299) 
49.8897

>  <b_lp_Chiralities_Consistent>  (299) 
1

>  <s_lp_Variant>  (299) 
106:0-1

>  <s_i_glide_gridfile>  (299) 
pfpi4k_grid

>  <i_i_glide_lignum>  (299) 
24

>  <i_i_glide_rotatable_bonds>  (299) 
0

>  <r_i_docking_score>  (299) 
-5.15951

>  <r_i_glide_ligand_efficiency>  (299) 
-0.322469

>  <r_i_glide_ligand_efficiency_sa>  (299) 
-0.812572

>  <r_i_glide_ligand_efficiency_ln>  (299) 
-1.36763

>  <r_i_glide_gscore>  (299) 
-5.15951

>  <r_i_glide_lipo>  (299) 
-1.62242

>  <r_i_glide_hbond>  (299) 
0

>  <r_i_glide_metal>  (299) 
-0

>  <r_i_glide_rewards>  (299) 
-2.37278

>  <r_i_glide_evdw>  (299) 
-18.56

>  <r_i_glide_ecoul>  (299) 
-1.57543

>  <r_i_glide_erotb>  (299) 
0

>  <r_i_glide_esite>  (299) 
0

>  <r_i_glide_emodel>  (299) 
-26.2304

>  <r_i_glide_energy>  (299) 
-20.1354

>  <r_i_glide_einternal>  (299) 
0

>  <r_i_glide_intrahb_reward>  (299) 
-0

>  <i_i_glide_confnum>  (299) 
1

>  <i_i_glide_posenum>  (299) 
6

>  <r_i_glide_eff_state_penalty>  (299) 
0

>  <ligand_id>  (299) 
106

>  <original_smiles>  (299) 
CN1CC2CC3C(CC3c3ccccc32)C1

>  <smiles>  (299) 
[H]c1c([H])c([H])c2c(c1[H])C1([H])C([H])([H])C3([H])C1([H])C([H])([H])C2([H])C([H])([H])[N+]([H])(C([H])([H])[H])C3([H])[H]

$$$$
106:0:1
     RDKit          3D

 36 39  0  0  1  0  0  0  0  0999 V2000
    2.9697   -1.8716    2.4094 C   0  0  0  0  0  0  0  0  0  0  0  0
    3.9300   -2.3484    1.3874 N   0  0  1  0  0  0  0  0  0  0  0  0
    4.8039   -1.2331    0.9344 C   0  0  0  0  0  0  0  0  0  0  0  0
    5.6170   -1.4875   -0.3502 C   0  0  1  0  0  0  0  0  0  0  0  0
    6.6978   -2.5591   -0.1999 C   0  0  0  0  0  0  0  0  0  0  0  0
    6.1124   -3.9484   -0.2969 C   0  0  1  0  0  0  0  0  0  0  0  0
    5.1680   -4.4597    0.7895 C   0  0  2  0  0  0  0  0  0  0  0  0
    4.1984   -4.9538   -0.2817 C   0  0  0  0  0  0  0  0  0  0  0  0
    5.0097   -4.2130   -1.3400 C   0  0  1  0  0  0  0  0  0  0  0  0
    4.4322   -3.0109   -2.0506 C   0  0  0  0  0  0  0  0  0  0  0  0
    3.6257   -3.1787   -3.1967 C   0  0  0  0  0  0  0  0  0  0  0  0
    3.1135   -2.0543   -3.8664 C   0  0  0  0  0  0  0  0  0  0  0  0
    3.4204   -0.7612   -3.4191 C   0  0  0  0  0  0  0  0  0  0  0  0
    4.2375   -0.6119   -2.2922 C   0  0  0  0  0  0  0  0  0  0  0  0
    4.7377   -1.7180   -1.5841 C   0  0  0  0  0  0  0  0  0  0  0  0
    4.6715   -3.5379    1.8934 C   0  0  0  0  0  0  0  0  0  0  0  0
    3.4985   -1.5486    3.3045 H   0  0  0  0  0  0  0  0  0  0  0  0
    2.2719   -2.6559    2.6966 H   0  0  0  0  0  0  0  0  0  0  0  0
    2.3842   -1.0321    2.0418 H   0  0  0  0  0  0  0  0  0  0  0  0
    4.1696   -0.3715    0.7322 H   0  0  0  0  0  0  0  0  0  0  0  0
    5.4665   -0.9275    1.7421 H   0  0  0  0  0  0  0  0  0  0  0  0
    6.1489   -0.5596   -0.5258 H   0  0  0  0  0  0  0  0  0  0  0  0
    7.4197   -2.4420   -1.0121 H   0  0  0  0  0  0  0  0  0  0  0  0
    7.2654   -2.4336    0.7250 H   0  0  0  0  0  0  0  0  0  0  0  0
    6.9193   -4.6626   -0.3924 H   0  0  0  0  0  0  0  0  0  0  0  0
    5.6360   -5.3350    1.2289 H   0  0  0  0  0  0  0  0  0  0  0  0
    4.2267   -6.0412   -0.4018 H   0  0  0  0  0  0  0  0  0  0  0  0
    3.1757   -4.5892   -0.1662 H   0  0  0  0  0  0  0  0  0  0  0  0
    5.3375   -4.9131   -2.1003 H   0  0  0  0  0  0  0  0  0  0  0  0
    3.3890   -4.1666   -3.5583 H   0  0  0  0  0  0  0  0  0  0  0  0
    2.4682   -2.1745   -4.7074 H   0  0  0  0  0  0  0  0  0  0  0  0
    3.0213    0.1132   -3.9108 H   0  0  0  0  0  0  0  0  0  0  0  0
    4.4620    0.3856   -1.9571 H   0  0  0  0  0  0  0  0  0  0  0  0
    5.4908   -3.2354    2.5451 H   0  0  0  0  0  0  0  0  0  0  0  0
    4.0077   -4.1268    2.5263 H   0  0  0  0  0  0  0  0  0  0  0  0
    3.3852   -2.6403    0.5815 H   0  0  0  0  0  0  0  0  0  0  0  0
  1  2  1  0
  1 17  1  0
  1 18  1  0
  1 19  1  0
  2 16  1  0
  2  3  1  0
  2 36  1  6
  3  4  1  0
  3 20  1  0
  3 21  1  0
  4 15  1  0
  4  5  1  0
  4 22  1  6
  5  6  1  0
  5 23  1  0
  5 24  1  0
  6  9  1  0
  6  7  1  0
  6 25  1  6
  7  8  1  0
  7 16  1  0
  7 26  1  1
  8  9  1  0
  8 27  1  0
  8 28  1  0
  9 10  1  0
  9 29  1  6
 10 15  2  0
 10 11  1  0
 11 12  2  0
 11 30  1  0
 12 13  1  0
 12 31  1  0
 13 14  2  0
 13 32  1  0
 14 15  1  0
 14 33  1  0
 16 34  1  0
 16 35  1  0
M  CHG  1   2   1
M  END
>  <i_m_ct_stereo_status>  (300) 
1

>  <s_m_source_file>  (300) 
/var/tmp/pbs.5076255.sched01/tmpnpseqx1a/1202b9de7rm.sdf

>  <i_m_source_file_index>  (300) 
24

>  <i_lp_mmshare_version>  (300) 
48012

>  <i_f3d_flags>  (300) 
0

>  <s_epik_input>  (300) 
W0NIM11OKFtDSDJdMSlbQ0gyXVtDQEBIXShbQ0gyXTIpW0NASF0oW0NIMl0zKVtDQEBIXTJjKGM0W0NAQEhdMTMpW2NIXVtjSF1bY0hdW2NIXTQ=

>  <s_epik_cmdline>  (300) 
J2VwaWtfcHl0aG9uJywgJy1waHQnLCAnMi4wJywgJy1waCcsICc3LjAnLCAnLXRuJywgJzgnLCAnLW1hJywgJzIwMCcsICctaW1hZScsICc8aW5maWxlLm1hZT4nLCAnLW9tYWUnLCAnPG91dGZpbGUubWFlPic=

>  <r_epik_Ionization_Penalty>  (300) 
0.00271513

>  <r_epik_Ionization_Penalty_Charging>  (300) 
0.00271513

>  <r_epik_Ionization_Penalty_Neutral>  (300) 
0

>  <r_epik_State_Penalty>  (300) 
0.0018935

>  <r_epik_Charging_Adjusted_Penalty>  (300) 
0.00460864

>  <i_epik_Tot_Q>  (300) 
1

>  <i_epik_Tot_abs_Q>  (300) 
1

>  <s_lp_Force_Field>  (300) 
OPLS3e

>  <r_lp_Energy>  (300) 
49.8897

>  <b_lp_Chiralities_Consistent>  (300) 
1

>  <s_lp_Variant>  (300) 
106:0-1

>  <s_i_glide_gridfile>  (300) 
pfpi4k_grid

>  <i_i_glide_lignum>  (300) 
24

>  <i_i_glide_rotatable_bonds>  (300) 
0

>  <r_i_docking_score>  (300) 
-3.89032

>  <r_i_glide_ligand_efficiency>  (300) 
-0.243145

>  <r_i_glide_ligand_efficiency_sa>  (300) 
-0.612687

>  <r_i_glide_ligand_efficiency_ln>  (300) 
-1.03121

>  <r_i_glide_gscore>  (300) 
-3.89032

>  <r_i_glide_lipo>  (300) 
-0.596576

>  <r_i_glide_hbond>  (300) 
0

>  <r_i_glide_metal>  (300) 
-0

>  <r_i_glide_rewards>  (300) 
-1.94778

>  <r_i_glide_evdw>  (300) 
-15.8367

>  <r_i_glide_ecoul>  (300) 
-3.67543

>  <r_i_glide_erotb>  (300) 
0

>  <r_i_glide_esite>  (300) 
-0.00281483

>  <r_i_glide_emodel>  (300) 
-24.0037

>  <r_i_glide_energy>  (300) 
-19.5122

>  <r_i_glide_einternal>  (300) 
0

>  <r_i_glide_intrahb_reward>  (300) 
-0

>  <i_i_glide_confnum>  (300) 
2

>  <i_i_glide_posenum>  (300) 
27

>  <r_i_glide_eff_state_penalty>  (300) 
0

>  <ligand_id>  (300) 
106

>  <original_smiles>  (300) 
CN1CC2CC3C(CC3c3ccccc32)C1

>  <smiles>  (300) 
[H]c1c([H])c([H])c2c(c1[H])C1([H])C([H])([H])C3([H])C1([H])C([H])([H])C2([H])C([H])([H])[N+]([H])(C([H])([H])[H])C3([H])[H]

$$$$
106:0:2
     RDKit          3D

 36 39  0  0  1  0  0  0  0  0999 V2000
    2.4805   -0.6095    1.5342 C   0  0  0  0  0  0  0  0  0  0  0  0
    3.1182   -1.4286    0.4838 N   0  0  1  0  0  0  0  0  0  0  0  0
    4.4101   -0.8208    0.0781 C   0  0  0  0  0  0  0  0  0  0  0  0
    5.0341   -1.3601   -1.2101 C   0  0  1  0  0  0  0  0  0  0  0  0
    5.5219   -2.8196   -1.1285 C   0  0  0  0  0  0  0  0  0  0  0  0
    4.3711   -3.7961   -1.2849 C   0  0  1  0  0  0  0  0  0  0  0  0
    3.2806   -3.8413   -0.2105 C   0  0  2  0  0  0  0  0  0  0  0  0
    2.2034   -3.8044   -1.2922 C   0  0  0  0  0  0  0  0  0  0  0  0
    3.2906   -3.4530   -2.3089 C   0  0  1  0  0  0  0  0  0  0  0  0
    3.3468   -2.0929   -2.9482 C   0  0  0  0  0  0  0  0  0  0  0  0
    2.5942   -1.8239   -4.0823 C   0  0  0  0  0  0  0  0  0  0  0  0
    2.6312   -0.5449   -4.6999 C   0  0  0  0  0  0  0  0  0  0  0  0
    3.4881    0.4299   -4.2557 C   0  0  0  0  0  0  0  0  0  0  0  0
    4.2154    0.1502   -3.0954 C   0  0  0  0  0  0  0  0  0  0  0  0
    4.1746   -1.0925   -2.4349 C   0  0  0  0  0  0  0  0  0  0  0  0
    3.2367   -2.8420    0.9312 C   0  0  0  0  0  0  0  0  0  0  0  0
    3.0786   -0.5905    2.4416 H   0  0  0  0  0  0  0  0  0  0  0  0
    1.5026   -0.9891    1.7991 H   0  0  0  0  0  0  0  0  0  0  0  0
    2.3410    0.4179    1.2218 H   0  0  0  0  0  0  0  0  0  0  0  0
    4.2364    0.2395   -0.0607 H   0  0  0  0  0  0  0  0  0  0  0  0
    5.1319   -0.8641    0.8945 H   0  0  0  0  0  0  0  0  0  0  0  0
    5.9245   -0.7697   -1.3648 H   0  0  0  0  0  0  0  0  0  0  0  0
    6.2247   -2.9908   -1.9438 H   0  0  0  0  0  0  0  0  0  0  0  0
    6.0667   -2.9979   -0.2005 H   0  0  0  0  0  0  0  0  0  0  0  0
    4.7036   -4.8139   -1.4929 H   0  0  0  0  0  0  0  0  0  0  0  0
    3.2898   -4.8440    0.1805 H   0  0  0  0  0  0  0  0  0  0  0  0
    1.7028   -4.7575   -1.4630 H   0  0  0  0  0  0  0  0  0  0  0  0
    1.4434   -3.0555   -1.1416 H   0  0  0  0  0  0  0  0  0  0  0  0
    3.2918   -4.1351   -3.1453 H   0  0  0  0  0  0  0  0  0  0  0  0
    1.9201   -2.5872   -4.4493 H   0  0  0  0  0  0  0  0  0  0  0  0
    1.9824   -0.2536   -5.5167 H   0  0  0  0  0  0  0  0  0  0  0  0
    3.5211    1.4125   -4.7127 H   0  0  0  0  0  0  0  0  0  0  0  0
    4.8501    0.9137   -2.7238 H   0  0  0  0  0  0  0  0  0  0  0  0
    4.0947   -2.9693    1.5942 H   0  0  0  0  0  0  0  0  0  0  0  0
    2.3758   -3.0840    1.5488 H   0  0  0  0  0  0  0  0  0  0  0  0
    2.4556   -1.3867   -0.3004 H   0  0  0  0  0  0  0  0  0  0  0  0
  1  2  1  0
  1 17  1  0
  1 18  1  0
  1 19  1  0
  2 16  1  0
  2  3  1  0
  2 36  1  6
  3  4  1  0
  3 20  1  0
  3 21  1  0
  4 15  1  0
  4  5  1  0
  4 22  1  6
  5  6  1  0
  5 23  1  0
  5 24  1  0
  6  9  1  0
  6  7  1  0
  6 25  1  6
  7  8  1  0
  7 16  1  0
  7 26  1  1
  8  9  1  0
  8 27  1  0
  8 28  1  0
  9 10  1  0
  9 29  1  6
 10 15  2  0
 10 11  1  0
 11 12  2  0
 11 30  1  0
 12 13  1  0
 12 31  1  0
 13 14  2  0
 13 32  1  0
 14 15  1  0
 14 33  1  0
 16 34  1  0
 16 35  1  0
M  CHG  1   2   1
M  END
>  <i_m_ct_stereo_status>  (301) 
1

>  <s_m_source_file>  (301) 
/var/tmp/pbs.5076255.sched01/tmpnpseqx1a/1202b9de7rm.sdf

>  <i_m_source_file_index>  (301) 
24

>  <i_lp_mmshare_version>  (301) 
48012

>  <i_f3d_flags>  (301) 
0

>  <s_epik_input>  (301) 
W0NIM11OKFtDSDJdMSlbQ0gyXVtDQEBIXShbQ0gyXTIpW0NASF0oW0NIMl0zKVtDQEBIXTJjKGM0W0NAQEhdMTMpW2NIXVtjSF1bY0hdW2NIXTQ=

>  <s_epik_cmdline>  (301) 
J2VwaWtfcHl0aG9uJywgJy1waHQnLCAnMi4wJywgJy1waCcsICc3LjAnLCAnLXRuJywgJzgnLCAnLW1hJywgJzIwMCcsICctaW1hZScsICc8aW5maWxlLm1hZT4nLCAnLW9tYWUnLCAnPG91dGZpbGUubWFlPic=

>  <r_epik_Ionization_Penalty>  (301) 
0.00271513

>  <r_epik_Ionization_Penalty_Charging>  (301) 
0.00271513

>  <r_epik_Ionization_Penalty_Neutral>  (301) 
0

>  <r_epik_State_Penalty>  (301) 
0.0018935

>  <r_epik_Charging_Adjusted_Penalty>  (301) 
0.00460864

>  <i_epik_Tot_Q>  (301) 
1

>  <i_epik_Tot_abs_Q>  (301) 
1

>  <s_lp_Force_Field>  (301) 
OPLS3e

>  <r_lp_Energy>  (301) 
49.8897

>  <b_lp_Chiralities_Consistent>  (301) 
1

>  <s_lp_Variant>  (301) 
106:0-1

>  <s_i_glide_gridfile>  (301) 
pfpi4k_grid

>  <i_i_glide_lignum>  (301) 
24

>  <i_i_glide_rotatable_bonds>  (301) 
0

>  <r_i_docking_score>  (301) 
-3.655

>  <r_i_glide_ligand_efficiency>  (301) 
-0.228438

>  <r_i_glide_ligand_efficiency_sa>  (301) 
-0.575627

>  <r_i_glide_ligand_efficiency_ln>  (301) 
-0.968831

>  <r_i_glide_gscore>  (301) 
-3.655

>  <r_i_glide_lipo>  (301) 
-0.235047

>  <r_i_glide_hbond>  (301) 
-0.181362

>  <r_i_glide_metal>  (301) 
-0

>  <r_i_glide_rewards>  (301) 
-1.94778

>  <r_i_glide_evdw>  (301) 
-6.06584

>  <r_i_glide_ecoul>  (301) 
-5.99875

>  <r_i_glide_erotb>  (301) 
0

>  <r_i_glide_esite>  (301) 
-0.0877105

>  <r_i_glide_emodel>  (301) 
-15.4799

>  <r_i_glide_energy>  (301) 
-12.0646

>  <r_i_glide_einternal>  (301) 
0

>  <r_i_glide_intrahb_reward>  (301) 
-0

>  <i_i_glide_confnum>  (301) 
1

>  <i_i_glide_posenum>  (301) 
17

>  <r_i_glide_eff_state_penalty>  (301) 
0

>  <ligand_id>  (301) 
106

>  <original_smiles>  (301) 
CN1CC2CC3C(CC3c3ccccc32)C1

>  <smiles>  (301) 
[H]c1c([H])c([H])c2c(c1[H])C1([H])C([H])([H])C3([H])C1([H])C([H])([H])C2([H])C([H])([H])[N+]([H])(C([H])([H])[H])C3([H])[H]

$$$$
107:0:0
     RDKit          3D

 23 25  0  0  1  0  0  0  0  0999 V2000
    3.1801   -0.7348   -3.6471 C   0  0  0  0  0  0  0  0  0  0  0  0
    2.6179   -2.0244   -3.7019 C   0  0  0  0  0  0  0  0  0  0  0  0
    3.0917   -3.0381   -2.8590 C   0  0  0  0  0  0  0  0  0  0  0  0
    4.1509   -2.7554   -1.9859 C   0  0  0  0  0  0  0  0  0  0  0  0
    4.7442   -1.4822   -1.9147 C   0  0  0  0  0  0  0  0  0  0  0  0
    4.2330   -0.4657   -2.7535 C   0  0  0  0  0  0  0  0  0  0  0  0
    5.7718   -1.4835   -0.9874 N   0  0  0  0  0  0  0  0  0  0  0  0
    5.8258   -2.6741   -0.4725 N   0  0  0  0  0  0  0  0  0  0  0  0
    4.8568   -3.4613   -1.0380 N   0  0  0  0  0  0  0  0  0  0  0  0
    4.6288   -4.8021   -0.7060 N   0  0  0  0  0  0  0  0  0  0  0  0
    5.2785   -5.4629    0.3437 C   0  0  0  0  0  0  0  0  0  0  0  0
    6.2904   -5.0103    1.0785 N   0  0  0  0  0  0  0  0  0  0  0  0
    6.5673   -6.0243    1.9874 C   0  0  0  0  0  0  0  0  0  0  0  0
    5.7150   -7.0821    1.7647 C   0  0  0  0  0  0  0  0  0  0  0  0
    4.9079   -6.6978    0.7047 N   0  0  0  0  0  0  0  0  0  0  0  0
    4.1721   -7.2472    0.2821 H   0  0  0  0  0  0  0  0  0  0  0  0
    2.7850    0.0627   -4.2610 H   0  0  0  0  0  0  0  0  0  0  0  0
    1.7657   -2.2258   -4.3275 H   0  0  0  0  0  0  0  0  0  0  0  0
    2.6138   -3.9942   -2.8829 H   0  0  0  0  0  0  0  0  0  0  0  0
    4.6522    0.5265   -2.7101 H   0  0  0  0  0  0  0  0  0  0  0  0
    7.3496   -5.9013    2.7252 H   0  0  0  0  0  0  0  0  0  0  0  0
    5.6204   -8.0368    2.2590 H   0  0  0  0  0  0  0  0  0  0  0  0
    3.9218   -5.2822   -1.2647 H   0  0  0  0  0  0  0  0  0  0  0  0
  1  6  2  0
  1  2  1  0
  1 17  1  0
  2  3  2  0
  2 18  1  0
  3  4  1  0
  3 19  1  0
  4  9  1  0
  4  5  2  0
  5  6  1  0
  5  7  1  0
  6 20  1  0
  7  8  2  0
  8  9  1  0
  9 10  1  0
 10 11  1  0
 10 23  1  0
 11 15  1  0
 11 12  2  0
 12 13  1  0
 13 14  2  0
 13 21  1  0
 14 15  1  0
 14 22  1  0
 15 16  1  0
M  END
>  <i_m_ct_stereo_status>  (302) 
1

>  <s_m_source_file>  (302) 
/var/tmp/pbs.5076255.sched01/tmpnpseqx1a/1202b9de7rm.sdf

>  <i_m_source_file_index>  (302) 
25

>  <i_lp_mmshare_version>  (302) 
48012

>  <i_f3d_flags>  (302) 
0

>  <s_epik_input>  (302) 
W2NIXTFbY0hdW2NIXVtjSF1jKGMxMilubm4yTj1jM1tuSF1bY0hdW2NIXVtuSF0z

>  <s_epik_cmdline>  (302) 
J2VwaWtfcHl0aG9uJywgJy1waHQnLCAnMi4wJywgJy1waCcsICc3LjAnLCAnLXRuJywgJzgnLCAnLW1hJywgJzIwMCcsICctaW1hZScsICc8aW5maWxlLm1hZT4nLCAnLW9tYWUnLCAnPG91dGZpbGUubWFlPic=

>  <r_epik_Ionization_Penalty>  (302) 
0.0927177

>  <r_epik_Ionization_Penalty_Charging>  (302) 
0.0106595

>  <r_epik_Ionization_Penalty_Neutral>  (302) 
0.0820582

>  <r_epik_State_Penalty>  (302) 
0.016209

>  <r_epik_Charging_Adjusted_Penalty>  (302) 
0.0268685

>  <i_epik_Tot_Q>  (302) 
0

>  <i_epik_Tot_abs_Q>  (302) 
0

>  <s_lp_Force_Field>  (302) 
OPLS3e

>  <r_lp_Energy>  (302) 
11.9539

>  <b_lp_Chiralities_Consistent>  (302) 
1

>  <s_lp_Variant>  (302) 
107:0-1

>  <s_i_glide_gridfile>  (302) 
pfpi4k_grid

>  <i_i_glide_lignum>  (302) 
25

>  <i_i_glide_rotatable_bonds>  (302) 
2

>  <r_i_docking_score>  (302) 
-4.55443

>  <r_i_glide_ligand_efficiency>  (302) 
-0.303629

>  <r_i_glide_ligand_efficiency_sa>  (302) 
-0.748813

>  <r_i_glide_ligand_efficiency_ln>  (302) 
-1.22826

>  <r_i_glide_gscore>  (302) 
-4.55443

>  <r_i_glide_lipo>  (302) 
-0.723478

>  <r_i_glide_hbond>  (302) 
-0.32

>  <r_i_glide_metal>  (302) 
-0

>  <r_i_glide_rewards>  (302) 
-2.23999

>  <r_i_glide_evdw>  (302) 
-20.3624

>  <r_i_glide_ecoul>  (302) 
-6.50796

>  <r_i_glide_erotb>  (302) 
0.815307

>  <r_i_glide_esite>  (302) 
-0.0919646

>  <r_i_glide_emodel>  (302) 
-35.1063

>  <r_i_glide_energy>  (302) 
-26.8704

>  <r_i_glide_einternal>  (302) 
0.0777309

>  <r_i_glide_intrahb_reward>  (302) 
-0

>  <i_i_glide_confnum>  (302) 
1

>  <i_i_glide_posenum>  (302) 
10

>  <r_i_glide_eff_state_penalty>  (302) 
0

>  <ligand_id>  (302) 
107

>  <original_smiles>  (302) 
c1ccc2c(c1)nnn2N=c1[nH]cc[nH]1

>  <smiles>  (302) 
[H]c1nc(N([H])n2nnc3c([H])c([H])c([H])c([H])c32)n([H])c1[H]

$$$$
107:0:1
     RDKit          3D

 23 25  0  0  1  0  0  0  0  0999 V2000
   -1.2770    1.4525    7.2287 C   0  0  0  0  0  0  0  0  0  0  0  0
   -0.3512    0.5588    6.6519 C   0  0  0  0  0  0  0  0  0  0  0  0
   -0.1590    0.5849    5.2576 C   0  0  0  0  0  0  0  0  0  0  0  0
   -0.8538    1.5178    4.4552 C   0  0  0  0  0  0  0  0  0  0  0  0
   -1.7830    2.4215    5.0153 C   0  0  0  0  0  0  0  0  0  0  0  0
   -1.9932    2.3691    6.4168 C   0  0  0  0  0  0  0  0  0  0  0  0
   -2.3478    3.1924    4.0093 N   0  0  0  0  0  0  0  0  0  0  0  0
   -1.8356    2.8030    2.8748 N   0  0  0  0  0  0  0  0  0  0  0  0
   -0.9063    1.8222    3.1031 N   0  0  0  0  0  0  0  0  0  0  0  0
   -0.1725    1.2200    2.0641 N   0  0  0  0  0  0  0  0  0  0  0  0
    1.1835    0.8890    2.2063 C   0  0  0  0  0  0  0  0  0  0  0  0
    1.9889    1.2070    3.2151 N   0  0  0  0  0  0  0  0  0  0  0  0
    3.1975    0.5546    2.9547 C   0  0  0  0  0  0  0  0  0  0  0  0
    3.1068   -0.0687    1.7314 C   0  0  0  0  0  0  0  0  0  0  0  0
    1.8217    0.1566    1.2843 N   0  0  0  0  0  0  0  0  0  0  0  0
    1.4194   -0.1951    0.3971 H   0  0  0  0  0  0  0  0  0  0  0  0
   -1.4289    1.4380    8.2986 H   0  0  0  0  0  0  0  0  0  0  0  0
    0.2336   -0.1354    7.2532 H   0  0  0  0  0  0  0  0  0  0  0  0
    0.5351   -0.1138    4.8203 H   0  0  0  0  0  0  0  0  0  0  0  0
   -2.7070    3.0351    6.8684 H   0  0  0  0  0  0  0  0  0  0  0  0
    4.0174    0.5969    3.6572 H   0  0  0  0  0  0  0  0  0  0  0  0
    3.8281   -0.6376    1.1572 H   0  0  0  0  0  0  0  0  0  0  0  0
   -0.6340    1.1280    1.1643 H   0  0  0  0  0  0  0  0  0  0  0  0
  1  6  2  0
  1  2  1  0
  1 17  1  0
  2  3  2  0
  2 18  1  0
  3  4  1  0
  3 19  1  0
  4  9  1  0
  4  5  2  0
  5  6  1  0
  5  7  1  0
  6 20  1  0
  7  8  2  0
  8  9  1  0
  9 10  1  0
 10 11  1  0
 10 23  1  0
 11 15  1  0
 11 12  2  0
 12 13  1  0
 13 14  2  0
 13 21  1  0
 14 15  1  0
 14 22  1  0
 15 16  1  0
M  END
>  <i_m_ct_stereo_status>  (303) 
1

>  <s_m_source_file>  (303) 
/var/tmp/pbs.5076255.sched01/tmpnpseqx1a/1202b9de7rm.sdf

>  <i_m_source_file_index>  (303) 
25

>  <i_lp_mmshare_version>  (303) 
48012

>  <i_f3d_flags>  (303) 
0

>  <s_epik_input>  (303) 
W2NIXTFbY0hdW2NIXVtjSF1jKGMxMilubm4yTj1jM1tuSF1bY0hdW2NIXVtuSF0z

>  <s_epik_cmdline>  (303) 
J2VwaWtfcHl0aG9uJywgJy1waHQnLCAnMi4wJywgJy1waCcsICc3LjAnLCAnLXRuJywgJzgnLCAnLW1hJywgJzIwMCcsICctaW1hZScsICc8aW5maWxlLm1hZT4nLCAnLW9tYWUnLCAnPG91dGZpbGUubWFlPic=

>  <r_epik_Ionization_Penalty>  (303) 
0.0927177

>  <r_epik_Ionization_Penalty_Charging>  (303) 
0.0106595

>  <r_epik_Ionization_Penalty_Neutral>  (303) 
0.0820582

>  <r_epik_State_Penalty>  (303) 
0.016209

>  <r_epik_Charging_Adjusted_Penalty>  (303) 
0.0268685

>  <i_epik_Tot_Q>  (303) 
0

>  <i_epik_Tot_abs_Q>  (303) 
0

>  <s_lp_Force_Field>  (303) 
OPLS3e

>  <r_lp_Energy>  (303) 
11.9539

>  <b_lp_Chiralities_Consistent>  (303) 
1

>  <s_lp_Variant>  (303) 
107:0-1

>  <s_i_glide_gridfile>  (303) 
pfpi4k_grid

>  <i_i_glide_lignum>  (303) 
25

>  <i_i_glide_rotatable_bonds>  (303) 
2

>  <r_i_docking_score>  (303) 
-3.75432

>  <r_i_glide_ligand_efficiency>  (303) 
-0.250288

>  <r_i_glide_ligand_efficiency_sa>  (303) 
-0.617263

>  <r_i_glide_ligand_efficiency_ln>  (303) 
-1.01248

>  <r_i_glide_gscore>  (303) 
-3.75432

>  <r_i_glide_lipo>  (303) 
-0.0666592

>  <r_i_glide_hbond>  (303) 
-0.2575

>  <r_i_glide_metal>  (303) 
-0

>  <r_i_glide_rewards>  (303) 
-2.04409

>  <r_i_glide_evdw>  (303) 
-17.8984

>  <r_i_glide_ecoul>  (303) 
-6.38335

>  <r_i_glide_erotb>  (303) 
0.815307

>  <r_i_glide_esite>  (303) 
-0.348949

>  <r_i_glide_emodel>  (303) 
-28.3317

>  <r_i_glide_energy>  (303) 
-24.2818

>  <r_i_glide_einternal>  (303) 
5.17347

>  <r_i_glide_intrahb_reward>  (303) 
-0

>  <i_i_glide_confnum>  (303) 
3

>  <i_i_glide_posenum>  (303) 
28

>  <r_i_glide_eff_state_penalty>  (303) 
0

>  <ligand_id>  (303) 
107

>  <original_smiles>  (303) 
c1ccc2c(c1)nnn2N=c1[nH]cc[nH]1

>  <smiles>  (303) 
[H]c1nc(N([H])n2nnc3c([H])c([H])c([H])c([H])c32)n([H])c1[H]

$$$$
107:0:2
     RDKit          3D

 23 25  0  0  1  0  0  0  0  0999 V2000
   -1.3160    2.8183    4.0998 C   0  0  0  0  0  0  0  0  0  0  0  0
   -1.5882    2.1447    2.8880 C   0  0  0  0  0  0  0  0  0  0  0  0
   -0.5548    1.4579    2.2217 C   0  0  0  0  0  0  0  0  0  0  0  0
    0.7371    1.4588    2.7738 C   0  0  0  0  0  0  0  0  0  0  0  0
    1.0299    2.1273    3.9818 C   0  0  0  0  0  0  0  0  0  0  0  0
   -0.0119    2.8104    4.6456 C   0  0  0  0  0  0  0  0  0  0  0  0
    2.3635    1.9656    4.2994 N   0  0  0  0  0  0  0  0  0  0  0  0
    2.9079    1.2527    3.3642 N   0  0  0  0  0  0  0  0  0  0  0  0
    1.9630    0.9231    2.4280 N   0  0  0  0  0  0  0  0  0  0  0  0
    2.2229    0.1442    1.2877 N   0  0  0  0  0  0  0  0  0  0  0  0
    3.4588   -0.4440    1.0158 C   0  0  0  0  0  0  0  0  0  0  0  0
    4.6048   -0.2962    1.6769 N   0  0  0  0  0  0  0  0  0  0  0  0
    5.5167   -1.0932    0.9992 C   0  0  0  0  0  0  0  0  0  0  0  0
    4.8969   -1.6991   -0.0687 C   0  0  0  0  0  0  0  0  0  0  0  0
    3.5785   -1.2629   -0.0347 N   0  0  0  0  0  0  0  0  0  0  0  0
    2.8197   -1.4904   -0.6715 H   0  0  0  0  0  0  0  0  0  0  0  0
   -2.1045    3.3485    4.6181 H   0  0  0  0  0  0  0  0  0  0  0  0
   -2.5847    2.1591    2.4667 H   0  0  0  0  0  0  0  0  0  0  0  0
   -0.7375    0.9585    1.2918 H   0  0  0  0  0  0  0  0  0  0  0  0
    0.2025    3.3235    5.5738 H   0  0  0  0  0  0  0  0  0  0  0  0
    6.5356   -1.1576    1.3499 H   0  0  0  0  0  0  0  0  0  0  0  0
    5.2692   -2.3832   -0.8168 H   0  0  0  0  0  0  0  0  0  0  0  0
    1.4426   -0.0649    0.6683 H   0  0  0  0  0  0  0  0  0  0  0  0
  1  6  2  0
  1  2  1  0
  1 17  1  0
  2  3  2  0
  2 18  1  0
  3  4  1  0
  3 19  1  0
  4  9  1  0
  4  5  2  0
  5  6  1  0
  5  7  1  0
  6 20  1  0
  7  8  2  0
  8  9  1  0
  9 10  1  0
 10 11  1  0
 10 23  1  0
 11 15  1  0
 11 12  2  0
 12 13  1  0
 13 14  2  0
 13 21  1  0
 14 15  1  0
 14 22  1  0
 15 16  1  0
M  END
>  <i_m_ct_stereo_status>  (304) 
1

>  <s_m_source_file>  (304) 
/var/tmp/pbs.5076255.sched01/tmpnpseqx1a/1202b9de7rm.sdf

>  <i_m_source_file_index>  (304) 
25

>  <i_lp_mmshare_version>  (304) 
48012

>  <i_f3d_flags>  (304) 
0

>  <s_epik_input>  (304) 
W2NIXTFbY0hdW2NIXVtjSF1jKGMxMilubm4yTj1jM1tuSF1bY0hdW2NIXVtuSF0z

>  <s_epik_cmdline>  (304) 
J2VwaWtfcHl0aG9uJywgJy1waHQnLCAnMi4wJywgJy1waCcsICc3LjAnLCAnLXRuJywgJzgnLCAnLW1hJywgJzIwMCcsICctaW1hZScsICc8aW5maWxlLm1hZT4nLCAnLW9tYWUnLCAnPG91dGZpbGUubWFlPic=

>  <r_epik_Ionization_Penalty>  (304) 
0.0927177

>  <r_epik_Ionization_Penalty_Charging>  (304) 
0.0106595

>  <r_epik_Ionization_Penalty_Neutral>  (304) 
0.0820582

>  <r_epik_State_Penalty>  (304) 
0.016209

>  <r_epik_Charging_Adjusted_Penalty>  (304) 
0.0268685

>  <i_epik_Tot_Q>  (304) 
0

>  <i_epik_Tot_abs_Q>  (304) 
0

>  <s_lp_Force_Field>  (304) 
OPLS3e

>  <r_lp_Energy>  (304) 
11.9539

>  <b_lp_Chiralities_Consistent>  (304) 
1

>  <s_lp_Variant>  (304) 
107:0-1

>  <s_i_glide_gridfile>  (304) 
pfpi4k_grid

>  <i_i_glide_lignum>  (304) 
25

>  <i_i_glide_rotatable_bonds>  (304) 
2

>  <r_i_docking_score>  (304) 
-3.52323

>  <r_i_glide_ligand_efficiency>  (304) 
-0.234882

>  <r_i_glide_ligand_efficiency_sa>  (304) 
-0.579269

>  <r_i_glide_ligand_efficiency_ln>  (304) 
-0.950157

>  <r_i_glide_gscore>  (304) 
-3.52323

>  <r_i_glide_lipo>  (304) 
-0.120243

>  <r_i_glide_hbond>  (304) 
-0.239287

>  <r_i_glide_metal>  (304) 
-0

>  <r_i_glide_rewards>  (304) 
-2.04409

>  <r_i_glide_evdw>  (304) 
-18.2089

>  <r_i_glide_ecoul>  (304) 
-5.56222

>  <r_i_glide_erotb>  (304) 
0.815307

>  <r_i_glide_esite>  (304) 
-0.19014

>  <r_i_glide_emodel>  (304) 
-30.171

>  <r_i_glide_energy>  (304) 
-23.7711

>  <r_i_glide_einternal>  (304) 
0.00207659

>  <r_i_glide_intrahb_reward>  (304) 
-0

>  <i_i_glide_confnum>  (304) 
1

>  <i_i_glide_posenum>  (304) 
12

>  <r_i_glide_eff_state_penalty>  (304) 
0

>  <ligand_id>  (304) 
107

>  <original_smiles>  (304) 
c1ccc2c(c1)nnn2N=c1[nH]cc[nH]1

>  <smiles>  (304) 
[H]c1nc(N([H])n2nnc3c([H])c([H])c([H])c([H])c32)n([H])c1[H]

$$$$
107:1:0
     RDKit          3D

 24 26  0  0  1  0  0  0  0  0999 V2000
   -1.7504    4.1156    9.1395 C   0  0  0  0  0  0  0  0  0  0  0  0
   -1.1771    4.9817    8.1859 C   0  0  0  0  0  0  0  0  0  0  0  0
   -0.9782    4.5421    6.8612 C   0  0  0  0  0  0  0  0  0  0  0  0
   -1.3596    3.2308    6.5109 C   0  0  0  0  0  0  0  0  0  0  0  0
   -1.9347    2.3479    7.4563 C   0  0  0  0  0  0  0  0  0  0  0  0
   -2.1284    2.8071    8.7751 C   0  0  0  0  0  0  0  0  0  0  0  0
   -2.1870    1.1235    6.8676 N   0  0  0  0  0  0  0  0  0  0  0  0
   -1.8098    1.1985    5.6299 N   0  0  0  0  0  0  0  0  0  0  0  0
   -1.2953    2.4412    5.3771 N   0  0  0  0  0  0  0  0  0  0  0  0
   -0.7555    2.7958    4.1301 N   0  0  0  0  0  0  0  0  0  0  0  0
   -0.1400    1.9008    3.3379 C   0  0  0  0  0  0  0  0  0  0  0  0
    0.3961    2.1437    2.1361 N   0  0  0  0  0  0  0  0  0  0  0  0
    0.9903    0.9942    1.6780 C   0  0  0  0  0  0  0  0  0  0  0  0
    0.8048    0.0298    2.6278 C   0  0  0  0  0  0  0  0  0  0  0  0
    0.1035    0.6212    3.6363 N   0  0  0  0  0  0  0  0  0  0  0  0
    0.3419    3.0462    1.6283 H   0  0  0  0  0  0  0  0  0  0  0  0
   -0.1827    0.1752    4.4978 H   0  0  0  0  0  0  0  0  0  0  0  0
   -1.9045    4.4400   10.1587 H   0  0  0  0  0  0  0  0  0  0  0  0
   -0.8913    5.9807    8.4854 H   0  0  0  0  0  0  0  0  0  0  0  0
   -0.5303    5.2048    6.1364 H   0  0  0  0  0  0  0  0  0  0  0  0
   -2.5540    2.1442    9.5103 H   0  0  0  0  0  0  0  0  0  0  0  0
    1.4810    0.9214    0.7187 H   0  0  0  0  0  0  0  0  0  0  0  0
    1.1081   -1.0079    2.6670 H   0  0  0  0  0  0  0  0  0  0  0  0
   -0.6718    3.7835    3.9390 H   0  0  0  0  0  0  0  0  0  0  0  0
  1  6  2  0
  1  2  1  0
  1 18  1  0
  2  3  2  0
  2 19  1  0
  3  4  1  0
  3 20  1  0
  4  9  1  0
  4  5  2  0
  5  6  1  0
  5  7  1  0
  6 21  1  0
  7  8  2  0
  8  9  1  0
  9 10  1  0
 10 11  1  0
 10 24  1  0
 11 15  1  0
 11 12  2  0
 12 16  1  0
 12 13  1  0
 13 14  2  0
 13 22  1  0
 14 15  1  0
 14 23  1  0
 15 17  1  0
M  CHG  1  12   1
M  END
>  <i_m_ct_stereo_status>  (305) 
1

>  <s_m_source_file>  (305) 
/var/tmp/pbs.5076255.sched01/tmpnpseqx1a/1202b9de7rm.sdf

>  <i_m_source_file_index>  (305) 
26

>  <i_lp_mmshare_version>  (305) 
48012

>  <i_f3d_flags>  (305) 
0

>  <s_epik_input>  (305) 
W2NIXTFbY0hdW2NIXVtjSF1jKGMxMilubm4yTj1jM1tuSF1bY0hdW2NIXVtuSF0z

>  <s_epik_cmdline>  (305) 
J2VwaWtfcHl0aG9uJywgJy1waHQnLCAnMi4wJywgJy1waCcsICc3LjAnLCAnLXRuJywgJzgnLCAnLW1hJywgJzIwMCcsICctaW1hZScsICc8aW5maWxlLm1hZT4nLCAnLW9tYWUnLCAnPG91dGZpbGUubWFlPic=

>  <r_epik_Ionization_Penalty>  (305) 
2.79633

>  <r_epik_Ionization_Penalty_Charging>  (305) 
0

>  <r_epik_Ionization_Penalty_Neutral>  (305) 
2.79633

>  <r_epik_State_Penalty>  (305) 
2.55074

>  <r_epik_Charging_Adjusted_Penalty>  (305) 
2.55074

>  <i_epik_Tot_Q>  (305) 
1

>  <i_epik_Tot_abs_Q>  (305) 
1

>  <s_lp_Force_Field>  (305) 
OPLS3e

>  <r_lp_Energy>  (305) 
15.9508

>  <b_lp_Chiralities_Consistent>  (305) 
1

>  <s_lp_Variant>  (305) 
107:0-2

>  <s_i_glide_gridfile>  (305) 
pfpi4k_grid

>  <i_i_glide_lignum>  (305) 
26

>  <i_i_glide_rotatable_bonds>  (305) 
2

>  <r_i_docking_score>  (305) 
-3.62285

>  <r_i_glide_ligand_efficiency>  (305) 
-0.241524

>  <r_i_glide_ligand_efficiency_sa>  (305) 
-0.595648

>  <r_i_glide_ligand_efficiency_ln>  (305) 
-0.977024

>  <r_i_glide_gscore>  (305) 
-3.62285

>  <r_i_glide_lipo>  (305) 
-0.0317224

>  <r_i_glide_hbond>  (305) 
-0.2

>  <r_i_glide_metal>  (305) 
-0

>  <r_i_glide_rewards>  (305) 
-2.03914

>  <r_i_glide_evdw>  (305) 
-12.2908

>  <r_i_glide_ecoul>  (305) 
-8.2301

>  <r_i_glide_erotb>  (305) 
0.808508

>  <r_i_glide_esite>  (305) 
-0.311449

>  <r_i_glide_emodel>  (305) 
-27.5567

>  <r_i_glide_energy>  (305) 
-20.5209

>  <r_i_glide_einternal>  (305) 
1.46124

>  <r_i_glide_intrahb_reward>  (305) 
-0

>  <i_i_glide_confnum>  (305) 
3

>  <i_i_glide_posenum>  (305) 
12

>  <r_i_glide_eff_state_penalty>  (305) 
0

>  <ligand_id>  (305) 
107

>  <original_smiles>  (305) 
c1ccc2c(c1)nnn2N=c1[nH]cc[nH]1

>  <smiles>  (305) 
[H]c1c([H])c([H])c2c(nnn2N([H])c2n([H])c([H])c([H])[n+]2[H])c1[H]

$$$$
107:1:1
     RDKit          3D

 24 26  0  0  1  0  0  0  0  0999 V2000
   -1.3342    1.9790    7.3128 C   0  0  0  0  0  0  0  0  0  0  0  0
   -0.3979    1.0675    6.7851 C   0  0  0  0  0  0  0  0  0  0  0  0
   -0.2489    0.9559    5.3905 C   0  0  0  0  0  0  0  0  0  0  0  0
   -1.0079    1.7784    4.5362 C   0  0  0  0  0  0  0  0  0  0  0  0
   -1.9569    2.6911    5.0437 C   0  0  0  0  0  0  0  0  0  0  0  0
   -2.1094    2.7841    6.4484 C   0  0  0  0  0  0  0  0  0  0  0  0
   -2.5846    3.3418    3.9945 N   0  0  0  0  0  0  0  0  0  0  0  0
   -2.1015    2.8691    2.8822 N   0  0  0  0  0  0  0  0  0  0  0  0
   -1.1191    1.9722    3.1605 N   0  0  0  0  0  0  0  0  0  0  0  0
   -0.4141    1.3487    2.1234 N   0  0  0  0  0  0  0  0  0  0  0  0
    0.8953    1.0730    2.1953 C   0  0  0  0  0  0  0  0  0  0  0  0
    1.6003    0.4010    1.2801 N   0  0  0  0  0  0  0  0  0  0  0  0
    2.9092    0.3192    1.6758 C   0  0  0  0  0  0  0  0  0  0  0  0
    2.9982    0.9600    2.8839 C   0  0  0  0  0  0  0  0  0  0  0  0
    1.7454    1.4229    3.1684 N   0  0  0  0  0  0  0  0  0  0  0  0
    1.2323   -0.0087    0.4097 H   0  0  0  0  0  0  0  0  0  0  0  0
    1.4725    1.9377    3.9946 H   0  0  0  0  0  0  0  0  0  0  0  0
   -1.4542    2.0690    8.3829 H   0  0  0  0  0  0  0  0  0  0  0  0
    0.2093    0.4544    7.4436 H   0  0  0  0  0  0  0  0  0  0  0  0
    0.4517    0.2362    5.0013 H   0  0  0  0  0  0  0  0  0  0  0  0
   -2.8319    3.4764    6.8608 H   0  0  0  0  0  0  0  0  0  0  0  0
    3.6742   -0.1820    1.0886 H   0  0  0  0  0  0  0  0  0  0  0  0
    3.8413    1.1326    3.5418 H   0  0  0  0  0  0  0  0  0  0  0  0
   -0.8777    1.3235    1.2194 H   0  0  0  0  0  0  0  0  0  0  0  0
  1  6  2  0
  1  2  1  0
  1 18  1  0
  2  3  2  0
  2 19  1  0
  3  4  1  0
  3 20  1  0
  4  9  1  0
  4  5  2  0
  5  6  1  0
  5  7  1  0
  6 21  1  0
  7  8  2  0
  8  9  1  0
  9 10  1  0
 10 11  1  0
 10 24  1  0
 11 15  1  0
 11 12  2  0
 12 16  1  0
 12 13  1  0
 13 14  2  0
 13 22  1  0
 14 15  1  0
 14 23  1  0
 15 17  1  0
M  CHG  1  12   1
M  END
>  <i_m_ct_stereo_status>  (306) 
1

>  <s_m_source_file>  (306) 
/var/tmp/pbs.5076255.sched01/tmpnpseqx1a/1202b9de7rm.sdf

>  <i_m_source_file_index>  (306) 
26

>  <i_lp_mmshare_version>  (306) 
48012

>  <i_f3d_flags>  (306) 
0

>  <s_epik_input>  (306) 
W2NIXTFbY0hdW2NIXVtjSF1jKGMxMilubm4yTj1jM1tuSF1bY0hdW2NIXVtuSF0z

>  <s_epik_cmdline>  (306) 
J2VwaWtfcHl0aG9uJywgJy1waHQnLCAnMi4wJywgJy1waCcsICc3LjAnLCAnLXRuJywgJzgnLCAnLW1hJywgJzIwMCcsICctaW1hZScsICc8aW5maWxlLm1hZT4nLCAnLW9tYWUnLCAnPG91dGZpbGUubWFlPic=

>  <r_epik_Ionization_Penalty>  (306) 
2.79633

>  <r_epik_Ionization_Penalty_Charging>  (306) 
0

>  <r_epik_Ionization_Penalty_Neutral>  (306) 
2.79633

>  <r_epik_State_Penalty>  (306) 
2.55074

>  <r_epik_Charging_Adjusted_Penalty>  (306) 
2.55074

>  <i_epik_Tot_Q>  (306) 
1

>  <i_epik_Tot_abs_Q>  (306) 
1

>  <s_lp_Force_Field>  (306) 
OPLS3e

>  <r_lp_Energy>  (306) 
15.9508

>  <b_lp_Chiralities_Consistent>  (306) 
1

>  <s_lp_Variant>  (306) 
107:0-2

>  <s_i_glide_gridfile>  (306) 
pfpi4k_grid

>  <i_i_glide_lignum>  (306) 
26

>  <i_i_glide_rotatable_bonds>  (306) 
2

>  <r_i_docking_score>  (306) 
-3.51577

>  <r_i_glide_ligand_efficiency>  (306) 
-0.234385

>  <r_i_glide_ligand_efficiency_sa>  (306) 
-0.578043

>  <r_i_glide_ligand_efficiency_ln>  (306) 
-0.948146

>  <r_i_glide_gscore>  (306) 
-3.51577

>  <r_i_glide_lipo>  (306) 
-0.142364

>  <r_i_glide_hbond>  (306) 
-0.286997

>  <r_i_glide_metal>  (306) 
-0

>  <r_i_glide_rewards>  (306) 
-2.03722

>  <r_i_glide_evdw>  (306) 
-16.2704

>  <r_i_glide_ecoul>  (306) 
-4.60562

>  <r_i_glide_erotb>  (306) 
0.808508

>  <r_i_glide_esite>  (306) 
-0.353336

>  <r_i_glide_emodel>  (306) 
-28.0869

>  <r_i_glide_energy>  (306) 
-20.876

>  <r_i_glide_einternal>  (306) 
1.05738

>  <r_i_glide_intrahb_reward>  (306) 
-0

>  <i_i_glide_confnum>  (306) 
4

>  <i_i_glide_posenum>  (306) 
1

>  <r_i_glide_eff_state_penalty>  (306) 
0

>  <ligand_id>  (306) 
107

>  <original_smiles>  (306) 
c1ccc2c(c1)nnn2N=c1[nH]cc[nH]1

>  <smiles>  (306) 
[H]c1c([H])c([H])c2c(nnn2N([H])c2n([H])c([H])c([H])[n+]2[H])c1[H]

$$$$
107:1:2
     RDKit          3D

 24 26  0  0  1  0  0  0  0  0999 V2000
   -2.4245    2.9734    8.3965 C   0  0  0  0  0  0  0  0  0  0  0  0
   -2.6286    2.1618    7.2681 C   0  0  0  0  0  0  0  0  0  0  0  0
   -2.0056    2.4967    6.0524 C   0  0  0  0  0  0  0  0  0  0  0  0
   -1.1346    3.6122    5.9897 C   0  0  0  0  0  0  0  0  0  0  0  0
   -0.9214    4.4475    7.1013 C   0  0  0  0  0  0  0  0  0  0  0  0
   -1.5808    4.1129    8.3132 C   0  0  0  0  0  0  0  0  0  0  0  0
   -0.0894    5.5025    6.7471 N   0  0  0  0  0  0  0  0  0  0  0  0
    0.2225    5.3681    5.4897 N   0  0  0  0  0  0  0  0  0  0  0  0
   -0.3445    4.2162    5.0122 N   0  0  0  0  0  0  0  0  0  0  0  0
   -0.1241    3.8127    3.6877 N   0  0  0  0  0  0  0  0  0  0  0  0
    0.0628    2.5424    3.3194 C   0  0  0  0  0  0  0  0  0  0  0  0
    0.3838    2.1398    2.0878 N   0  0  0  0  0  0  0  0  0  0  0  0
    0.5108    0.7781    2.0687 C   0  0  0  0  0  0  0  0  0  0  0  0
    0.2482    0.3395    3.3353 C   0  0  0  0  0  0  0  0  0  0  0  0
   -0.0004    1.4618    4.0821 N   0  0  0  0  0  0  0  0  0  0  0  0
    0.4542    2.8104    1.3193 H   0  0  0  0  0  0  0  0  0  0  0  0
   -0.2551    1.4932    5.0570 H   0  0  0  0  0  0  0  0  0  0  0  0
   -2.9302    2.7388    9.3314 H   0  0  0  0  0  0  0  0  0  0  0  0
   -3.2840    1.2980    7.2841 H   0  0  0  0  0  0  0  0  0  0  0  0
   -2.2360    1.9018    5.1890 H   0  0  0  0  0  0  0  0  0  0  0  0
   -1.4493    4.7397    9.1765 H   0  0  0  0  0  0  0  0  0  0  0  0
    0.7562    0.2205    1.1735 H   0  0  0  0  0  0  0  0  0  0  0  0
    0.2147   -0.6488    3.7577 H   0  0  0  0  0  0  0  0  0  0  0  0
    0.1393    4.5417    3.0326 H   0  0  0  0  0  0  0  0  0  0  0  0
  1  6  2  0
  1  2  1  0
  1 18  1  0
  2  3  2  0
  2 19  1  0
  3  4  1  0
  3 20  1  0
  4  9  1  0
  4  5  2  0
  5  6  1  0
  5  7  1  0
  6 21  1  0
  7  8  2  0
  8  9  1  0
  9 10  1  0
 10 11  1  0
 10 24  1  0
 11 15  1  0
 11 12  2  0
 12 16  1  0
 12 13  1  0
 13 14  2  0
 13 22  1  0
 14 15  1  0
 14 23  1  0
 15 17  1  0
M  CHG  1  12   1
M  END
>  <i_m_ct_stereo_status>  (307) 
1

>  <s_m_source_file>  (307) 
/var/tmp/pbs.5076255.sched01/tmpnpseqx1a/1202b9de7rm.sdf

>  <i_m_source_file_index>  (307) 
26

>  <i_lp_mmshare_version>  (307) 
48012

>  <i_f3d_flags>  (307) 
0

>  <s_epik_input>  (307) 
W2NIXTFbY0hdW2NIXVtjSF1jKGMxMilubm4yTj1jM1tuSF1bY0hdW2NIXVtuSF0z

>  <s_epik_cmdline>  (307) 
J2VwaWtfcHl0aG9uJywgJy1waHQnLCAnMi4wJywgJy1waCcsICc3LjAnLCAnLXRuJywgJzgnLCAnLW1hJywgJzIwMCcsICctaW1hZScsICc8aW5maWxlLm1hZT4nLCAnLW9tYWUnLCAnPG91dGZpbGUubWFlPic=

>  <r_epik_Ionization_Penalty>  (307) 
2.79633

>  <r_epik_Ionization_Penalty_Charging>  (307) 
0

>  <r_epik_Ionization_Penalty_Neutral>  (307) 
2.79633

>  <r_epik_State_Penalty>  (307) 
2.55074

>  <r_epik_Charging_Adjusted_Penalty>  (307) 
2.55074

>  <i_epik_Tot_Q>  (307) 
1

>  <i_epik_Tot_abs_Q>  (307) 
1

>  <s_lp_Force_Field>  (307) 
OPLS3e

>  <r_lp_Energy>  (307) 
15.9508

>  <b_lp_Chiralities_Consistent>  (307) 
1

>  <s_lp_Variant>  (307) 
107:0-2

>  <s_i_glide_gridfile>  (307) 
pfpi4k_grid

>  <i_i_glide_lignum>  (307) 
26

>  <i_i_glide_rotatable_bonds>  (307) 
2

>  <r_i_docking_score>  (307) 
-3.4442

>  <r_i_glide_ligand_efficiency>  (307) 
-0.229613

>  <r_i_glide_ligand_efficiency_sa>  (307) 
-0.566275

>  <r_i_glide_ligand_efficiency_ln>  (307) 
-0.928844

>  <r_i_glide_gscore>  (307) 
-3.4442

>  <r_i_glide_lipo>  (307) 
-0.0998198

>  <r_i_glide_hbond>  (307) 
-0.233446

>  <r_i_glide_metal>  (307) 
-0

>  <r_i_glide_rewards>  (307) 
-2.03722

>  <r_i_glide_evdw>  (307) 
-12.7119

>  <r_i_glide_ecoul>  (307) 
-6.01269

>  <r_i_glide_erotb>  (307) 
0.808508

>  <r_i_glide_esite>  (307) 
-0.344724

>  <r_i_glide_emodel>  (307) 
-26.0185

>  <r_i_glide_energy>  (307) 
-18.7246

>  <r_i_glide_einternal>  (307) 
0.436869

>  <r_i_glide_intrahb_reward>  (307) 
-0

>  <i_i_glide_confnum>  (307) 
4

>  <i_i_glide_posenum>  (307) 
21

>  <r_i_glide_eff_state_penalty>  (307) 
0

>  <ligand_id>  (307) 
107

>  <original_smiles>  (307) 
c1ccc2c(c1)nnn2N=c1[nH]cc[nH]1

>  <smiles>  (307) 
[H]c1c([H])c([H])c2c(nnn2N([H])c2n([H])c([H])c([H])[n+]2[H])c1[H]

$$$$
107:2:0
     RDKit          3D

 23 25  0  0  1  0  0  0  0  0999 V2000
   -8.1171   -4.1887   -5.5007 C   0  0  0  0  0  0  0  0  0  0  0  0
   -7.2075   -4.6486   -4.5285 C   0  0  0  0  0  0  0  0  0  0  0  0
   -6.5786   -5.8954   -4.6945 C   0  0  0  0  0  0  0  0  0  0  0  0
   -6.8655   -6.6733   -5.8342 C   0  0  0  0  0  0  0  0  0  0  0  0
   -7.7719   -6.2271   -6.8183 C   0  0  0  0  0  0  0  0  0  0  0  0
   -8.3942   -4.9712   -6.6411 C   0  0  0  0  0  0  0  0  0  0  0  0
   -7.8617   -7.1695   -7.8192 N   0  0  0  0  0  0  0  0  0  0  0  0
   -7.0830   -8.1568   -7.5047 N   0  0  0  0  0  0  0  0  0  0  0  0
   -6.4441   -7.9120   -6.3088 N   0  0  0  0  0  0  0  0  0  0  0  0
   -5.5180   -8.7273   -5.6289 N   0  0  0  0  0  0  0  0  0  0  0  0
   -5.1205   -9.8537   -6.1401 C   0  0  0  0  0  0  0  0  0  0  0  0
   -4.2170  -10.7061   -5.5213 N   0  0  0  0  0  0  0  0  0  0  0  0
   -4.0282  -11.8124   -6.3184 C   0  0  0  0  0  0  0  0  0  0  0  0
   -4.7714  -11.6762   -7.4155 C   0  0  0  0  0  0  0  0  0  0  0  0
   -5.4499  -10.4844   -7.3380 N   0  0  0  0  0  0  0  0  0  0  0  0
   -3.8104  -10.6318   -4.5920 H   0  0  0  0  0  0  0  0  0  0  0  0
   -6.0981  -10.1690   -8.0488 H   0  0  0  0  0  0  0  0  0  0  0  0
   -8.6028   -3.2239   -5.3846 H   0  0  0  0  0  0  0  0  0  0  0  0
   -7.0029   -4.0354   -3.6628 H   0  0  0  0  0  0  0  0  0  0  0  0
   -5.8910   -6.2496   -3.9445 H   0  0  0  0  0  0  0  0  0  0  0  0
   -9.0796   -4.6061   -7.3857 H   0  0  0  0  0  0  0  0  0  0  0  0
   -3.3660  -12.6046   -5.9994 H   0  0  0  0  0  0  0  0  0  0  0  0
   -4.8977  -12.3239   -8.2721 H   0  0  0  0  0  0  0  0  0  0  0  0
  1  6  2  0
  1  2  1  0
  1 18  1  0
  2  3  2  0
  2 19  1  0
  3  4  1  0
  3 20  1  0
  4  9  1  0
  4  5  2  0
  5  6  1  0
  5  7  1  0
  6 21  1  0
  7  8  2  0
  8  9  1  0
  9 10  1  0
 10 11  2  3
 11 15  1  0
 11 12  1  0
 12 16  1  0
 12 13  1  0
 13 14  2  0
 13 22  1  0
 14 15  1  0
 14 23  1  0
 15 17  1  0
M  END
>  <i_m_ct_stereo_status>  (308) 
1

>  <s_m_source_file>  (308) 
/var/tmp/pbs.5076255.sched01/tmpnpseqx1a/1202b9de7rm.sdf

>  <i_m_source_file_index>  (308) 
27

>  <i_lp_mmshare_version>  (308) 
48012

>  <i_f3d_flags>  (308) 
0

>  <s_epik_input>  (308) 
W2NIXTFbY0hdW2NIXVtjSF1jKGMxMilubm4yTj1jM1tuSF1bY0hdW2NIXVtuSF0z

>  <s_epik_cmdline>  (308) 
J2VwaWtfcHl0aG9uJywgJy1waHQnLCAnMi4wJywgJy1waCcsICc3LjAnLCAnLXRuJywgJzgnLCAnLW1hJywgJzIwMCcsICctaW1hZScsICc8aW5maWxlLm1hZT4nLCAnLW9tYWUnLCAnPG91dGZpbGUubWFlPic=

>  <r_epik_Ionization_Penalty>  (308) 
0.51502

>  <r_epik_Ionization_Penalty_Charging>  (308) 
0.410907

>  <r_epik_Ionization_Penalty_Neutral>  (308) 
0.104113

>  <r_epik_State_Penalty>  (308) 
2.55122

>  <r_epik_Charging_Adjusted_Penalty>  (308) 
2.96213

>  <i_epik_Tot_Q>  (308) 
0

>  <i_epik_Tot_abs_Q>  (308) 
0

>  <s_lp_Force_Field>  (308) 
OPLS3e

>  <r_lp_Energy>  (308) 
15.5285

>  <b_lp_Chiralities_Consistent>  (308) 
1

>  <s_lp_Variant>  (308) 
107:0-3

>  <s_i_glide_gridfile>  (308) 
pfpi4k_grid

>  <i_i_glide_lignum>  (308) 
27

>  <i_i_glide_rotatable_bonds>  (308) 
1

>  <r_i_docking_score>  (308) 
-7.04643

>  <r_i_glide_ligand_efficiency>  (308) 
-0.469762

>  <r_i_glide_ligand_efficiency_sa>  (308) 
-1.15853

>  <r_i_glide_ligand_efficiency_ln>  (308) 
-1.90031

>  <r_i_glide_gscore>  (308) 
-7.04643

>  <r_i_glide_lipo>  (308) 
-1.79321

>  <r_i_glide_hbond>  (308) 
-0.295633

>  <r_i_glide_metal>  (308) 
-0

>  <r_i_glide_rewards>  (308) 
-3.07868

>  <r_i_glide_evdw>  (308) 
-28.3362

>  <r_i_glide_ecoul>  (308) 
-3.08069

>  <r_i_glide_erotb>  (308) 
0

>  <r_i_glide_esite>  (308) 
0

>  <r_i_glide_emodel>  (308) 
-45.2407

>  <r_i_glide_energy>  (308) 
-31.4169

>  <r_i_glide_einternal>  (308) 
0.00252263

>  <r_i_glide_intrahb_reward>  (308) 
-0

>  <i_i_glide_confnum>  (308) 
1

>  <i_i_glide_posenum>  (308) 
11

>  <r_i_glide_eff_state_penalty>  (308) 
0

>  <ligand_id>  (308) 
107

>  <original_smiles>  (308) 
c1ccc2c(c1)nnn2N=c1[nH]cc[nH]1

>  <smiles>  (308) 
[H]c1c([H])c([H])c2c(nnn2N=c2n([H])c([H])c([H])n2[H])c1[H]

$$$$
107:2:1
     RDKit          3D

 23 25  0  0  1  0  0  0  0  0999 V2000
   -8.3634   -4.1535   -5.5818 C   0  0  0  0  0  0  0  0  0  0  0  0
   -8.8843   -5.0602   -6.5268 C   0  0  0  0  0  0  0  0  0  0  0  0
   -8.1811   -6.2474   -6.8107 C   0  0  0  0  0  0  0  0  0  0  0  0
   -6.9717   -6.5211   -6.1436 C   0  0  0  0  0  0  0  0  0  0  0  0
   -6.4327   -5.6228   -5.2015 C   0  0  0  0  0  0  0  0  0  0  0  0
   -7.1420   -4.4283   -4.9311 C   0  0  0  0  0  0  0  0  0  0  0  0
   -5.2400   -6.1208   -4.7205 N   0  0  0  0  0  0  0  0  0  0  0  0
   -5.0203   -7.2586   -5.3028 N   0  0  0  0  0  0  0  0  0  0  0  0
   -6.0478   -7.5628   -6.1673 N   0  0  0  0  0  0  0  0  0  0  0  0
   -6.1753   -8.6924   -6.9979 N   0  0  0  0  0  0  0  0  0  0  0  0
   -5.4921   -9.7702   -6.7576 C   0  0  0  0  0  0  0  0  0  0  0  0
   -5.5620  -10.9145   -7.5420 N   0  0  0  0  0  0  0  0  0  0  0  0
   -4.7419  -11.8773   -7.0008 C   0  0  0  0  0  0  0  0  0  0  0  0
   -4.1530  -11.3708   -5.9200 C   0  0  0  0  0  0  0  0  0  0  0  0
   -4.5874  -10.0787   -5.7434 N   0  0  0  0  0  0  0  0  0  0  0  0
   -6.1390  -11.0769   -8.3535 H   0  0  0  0  0  0  0  0  0  0  0  0
   -4.2803   -9.5085   -4.9671 H   0  0  0  0  0  0  0  0  0  0  0  0
   -8.8989   -3.2394   -5.3532 H   0  0  0  0  0  0  0  0  0  0  0  0
   -9.8214   -4.8438   -7.0119 H   0  0  0  0  0  0  0  0  0  0  0  0
   -8.5778   -6.9464   -7.5298 H   0  0  0  0  0  0  0  0  0  0  0  0
   -6.7452   -3.7236   -4.2210 H   0  0  0  0  0  0  0  0  0  0  0  0
   -4.6616  -12.8538   -7.4581 H   0  0  0  0  0  0  0  0  0  0  0  0
   -3.4458  -11.8056   -5.2264 H   0  0  0  0  0  0  0  0  0  0  0  0
  1  6  2  0
  1  2  1  0
  1 18  1  0
  2  3  2  0
  2 19  1  0
  3  4  1  0
  3 20  1  0
  4  9  1  0
  4  5  2  0
  5  6  1  0
  5  7  1  0
  6 21  1  0
  7  8  2  0
  8  9  1  0
  9 10  1  0
 10 11  2  3
 11 15  1  0
 11 12  1  0
 12 16  1  0
 12 13  1  0
 13 14  2  0
 13 22  1  0
 14 15  1  0
 14 23  1  0
 15 17  1  0
M  END
>  <i_m_ct_stereo_status>  (309) 
1

>  <s_m_source_file>  (309) 
/var/tmp/pbs.5076255.sched01/tmpnpseqx1a/1202b9de7rm.sdf

>  <i_m_source_file_index>  (309) 
27

>  <i_lp_mmshare_version>  (309) 
48012

>  <i_f3d_flags>  (309) 
0

>  <s_epik_input>  (309) 
W2NIXTFbY0hdW2NIXVtjSF1jKGMxMilubm4yTj1jM1tuSF1bY0hdW2NIXVtuSF0z

>  <s_epik_cmdline>  (309) 
J2VwaWtfcHl0aG9uJywgJy1waHQnLCAnMi4wJywgJy1waCcsICc3LjAnLCAnLXRuJywgJzgnLCAnLW1hJywgJzIwMCcsICctaW1hZScsICc8aW5maWxlLm1hZT4nLCAnLW9tYWUnLCAnPG91dGZpbGUubWFlPic=

>  <r_epik_Ionization_Penalty>  (309) 
0.51502

>  <r_epik_Ionization_Penalty_Charging>  (309) 
0.410907

>  <r_epik_Ionization_Penalty_Neutral>  (309) 
0.104113

>  <r_epik_State_Penalty>  (309) 
2.55122

>  <r_epik_Charging_Adjusted_Penalty>  (309) 
2.96213

>  <i_epik_Tot_Q>  (309) 
0

>  <i_epik_Tot_abs_Q>  (309) 
0

>  <s_lp_Force_Field>  (309) 
OPLS3e

>  <r_lp_Energy>  (309) 
15.5285

>  <b_lp_Chiralities_Consistent>  (309) 
1

>  <s_lp_Variant>  (309) 
107:0-3

>  <s_i_glide_gridfile>  (309) 
pfpi4k_grid

>  <i_i_glide_lignum>  (309) 
27

>  <i_i_glide_rotatable_bonds>  (309) 
1

>  <r_i_docking_score>  (309) 
-6.72857

>  <r_i_glide_ligand_efficiency>  (309) 
-0.448571

>  <r_i_glide_ligand_efficiency_sa>  (309) 
-1.10627

>  <r_i_glide_ligand_efficiency_ln>  (309) 
-1.81458

>  <r_i_glide_gscore>  (309) 
-6.72857

>  <r_i_glide_lipo>  (309) 
-1.68382

>  <r_i_glide_hbond>  (309) 
0

>  <r_i_glide_metal>  (309) 
-0

>  <r_i_glide_rewards>  (309) 
-3.04106

>  <r_i_glide_evdw>  (309) 
-29.5608

>  <r_i_glide_ecoul>  (309) 
-3.50431

>  <r_i_glide_erotb>  (309) 
0

>  <r_i_glide_esite>  (309) 
0

>  <r_i_glide_emodel>  (309) 
-46.1918

>  <r_i_glide_energy>  (309) 
-33.0651

>  <r_i_glide_einternal>  (309) 
0.134267

>  <r_i_glide_intrahb_reward>  (309) 
-0

>  <i_i_glide_confnum>  (309) 
2

>  <i_i_glide_posenum>  (309) 
6

>  <r_i_glide_eff_state_penalty>  (309) 
0

>  <ligand_id>  (309) 
107

>  <original_smiles>  (309) 
c1ccc2c(c1)nnn2N=c1[nH]cc[nH]1

>  <smiles>  (309) 
[H]c1c([H])c([H])c2c(nnn2N=c2n([H])c([H])c([H])n2[H])c1[H]

$$$$
107:2:2
     RDKit          3D

 23 25  0  0  1  0  0  0  0  0999 V2000
   -8.0978   -4.3616   -5.2714 C   0  0  0  0  0  0  0  0  0  0  0  0
   -8.6529   -5.1272   -6.3238 C   0  0  0  0  0  0  0  0  0  0  0  0
   -7.9788   -6.2810   -6.7706 C   0  0  0  0  0  0  0  0  0  0  0  0
   -6.7787   -6.6763   -6.1587 C   0  0  0  0  0  0  0  0  0  0  0  0
   -6.1964   -5.9152   -5.1178 C   0  0  0  0  0  0  0  0  0  0  0  0
   -6.8700   -4.7485   -4.6877 C   0  0  0  0  0  0  0  0  0  0  0  0
   -4.9964   -6.4892   -4.7355 N   0  0  0  0  0  0  0  0  0  0  0  0
   -4.8110   -7.5512   -5.4759 N   0  0  0  0  0  0  0  0  0  0  0  0
   -5.8566   -7.7190   -6.3423 N   0  0  0  0  0  0  0  0  0  0  0  0
   -5.8442   -8.7047   -7.3121 N   0  0  0  0  0  0  0  0  0  0  0  0
   -6.7504   -9.6178   -7.2503 C   0  0  0  0  0  0  0  0  0  0  0  0
   -6.8838  -10.6384   -8.1763 N   0  0  0  0  0  0  0  0  0  0  0  0
   -7.9191  -11.4456   -7.7866 C   0  0  0  0  0  0  0  0  0  0  0  0
   -8.4439  -10.9631   -6.6643 C   0  0  0  0  0  0  0  0  0  0  0  0
   -7.7558   -9.8258   -6.3081 N   0  0  0  0  0  0  0  0  0  0  0  0
   -6.3474  -10.7985   -9.0110 H   0  0  0  0  0  0  0  0  0  0  0  0
   -7.9757   -9.2963   -5.4722 H   0  0  0  0  0  0  0  0  0  0  0  0
   -8.6253   -3.4844   -4.8972 H   0  0  0  0  0  0  0  0  0  0  0  0
   -9.5956   -4.8454   -6.7629 H   0  0  0  0  0  0  0  0  0  0  0  0
   -8.3656   -6.8764   -7.5786 H   0  0  0  0  0  0  0  0  0  0  0  0
   -6.4439   -4.1416   -3.8982 H   0  0  0  0  0  0  0  0  0  0  0  0
   -8.1756  -12.3149   -8.3725 H   0  0  0  0  0  0  0  0  0  0  0  0
   -9.2584  -11.3199   -6.0520 H   0  0  0  0  0  0  0  0  0  0  0  0
  1  6  2  0
  1  2  1  0
  1 18  1  0
  2  3  2  0
  2 19  1  0
  3  4  1  0
  3 20  1  0
  4  9  1  0
  4  5  2  0
  5  6  1  0
  5  7  1  0
  6 21  1  0
  7  8  2  0
  8  9  1  0
  9 10  1  0
 10 11  2  3
 11 15  1  0
 11 12  1  0
 12 16  1  0
 12 13  1  0
 13 14  2  0
 13 22  1  0
 14 15  1  0
 14 23  1  0
 15 17  1  0
M  END
>  <i_m_ct_stereo_status>  (310) 
1

>  <s_m_source_file>  (310) 
/var/tmp/pbs.5076255.sched01/tmpnpseqx1a/1202b9de7rm.sdf

>  <i_m_source_file_index>  (310) 
27

>  <i_lp_mmshare_version>  (310) 
48012

>  <i_f3d_flags>  (310) 
0

>  <s_epik_input>  (310) 
W2NIXTFbY0hdW2NIXVtjSF1jKGMxMilubm4yTj1jM1tuSF1bY0hdW2NIXVtuSF0z

>  <s_epik_cmdline>  (310) 
J2VwaWtfcHl0aG9uJywgJy1waHQnLCAnMi4wJywgJy1waCcsICc3LjAnLCAnLXRuJywgJzgnLCAnLW1hJywgJzIwMCcsICctaW1hZScsICc8aW5maWxlLm1hZT4nLCAnLW9tYWUnLCAnPG91dGZpbGUubWFlPic=

>  <r_epik_Ionization_Penalty>  (310) 
0.51502

>  <r_epik_Ionization_Penalty_Charging>  (310) 
0.410907

>  <r_epik_Ionization_Penalty_Neutral>  (310) 
0.104113

>  <r_epik_State_Penalty>  (310) 
2.55122

>  <r_epik_Charging_Adjusted_Penalty>  (310) 
2.96213

>  <i_epik_Tot_Q>  (310) 
0

>  <i_epik_Tot_abs_Q>  (310) 
0

>  <s_lp_Force_Field>  (310) 
OPLS3e

>  <r_lp_Energy>  (310) 
15.5285

>  <b_lp_Chiralities_Consistent>  (310) 
1

>  <s_lp_Variant>  (310) 
107:0-3

>  <s_i_glide_gridfile>  (310) 
pfpi4k_grid

>  <i_i_glide_lignum>  (310) 
27

>  <i_i_glide_rotatable_bonds>  (310) 
1

>  <r_i_docking_score>  (310) 
-6.54631

>  <r_i_glide_ligand_efficiency>  (310) 
-0.436421

>  <r_i_glide_ligand_efficiency_sa>  (310) 
-1.07631

>  <r_i_glide_ligand_efficiency_ln>  (310) 
-1.76543

>  <r_i_glide_gscore>  (310) 
-6.54631

>  <r_i_glide_lipo>  (310) 
-1.94125

>  <r_i_glide_hbond>  (310) 
0

>  <r_i_glide_metal>  (310) 
-0

>  <r_i_glide_rewards>  (310) 
-2.98079

>  <r_i_glide_evdw>  (310) 
-27.7024

>  <r_i_glide_ecoul>  (310) 
-1.5186

>  <r_i_glide_erotb>  (310) 
0

>  <r_i_glide_esite>  (310) 
-0.0113531

>  <r_i_glide_emodel>  (310) 
-40.7667

>  <r_i_glide_energy>  (310) 
-29.221

>  <r_i_glide_einternal>  (310) 
2.31185

>  <r_i_glide_intrahb_reward>  (310) 
-0

>  <i_i_glide_confnum>  (310) 
1

>  <i_i_glide_posenum>  (310) 
34

>  <r_i_glide_eff_state_penalty>  (310) 
0

>  <ligand_id>  (310) 
107

>  <original_smiles>  (310) 
c1ccc2c(c1)nnn2N=c1[nH]cc[nH]1

>  <smiles>  (310) 
[H]c1c([H])c([H])c2c(nnn2N=c2n([H])c([H])c([H])n2[H])c1[H]

$$$$
108:0:0
     RDKit          3D

 43 46  0  0  1  0  0  0  0  0999 V2000
    2.5481   -2.7609   -2.9710 C   0  0  0  0  0  0  0  0  0  0  0  0
    3.6126   -2.5497   -1.8829 C   0  0  2  0  0  0  0  0  0  0  0  0
    4.9757   -2.0667   -2.5027 C   0  0  0  0  0  0  0  0  0  0  0  0
    6.1967   -1.9343   -1.5156 C   0  0  0  0  0  0  0  0  0  0  0  0
    6.3260   -3.1542   -0.5785 C   0  0  1  0  0  0  0  0  0  0  0  0
    6.8317   -3.0696    0.9330 C   0  0  1  0  0  0  0  0  0  0  0  0
    6.5268   -1.7926    1.3428 O   0  0  0  0  0  0  0  0  0  0  0  0
    5.1529   -1.6379    1.4598 C   0  0  0  0  0  0  0  0  0  0  0  0
    4.7555   -1.7541    2.9528 C   0  0  0  0  0  0  0  0  0  0  0  0
    4.7715   -0.2269    0.9833 C   0  0  0  0  0  0  0  0  0  0  0  0
    4.3910   -2.5594    0.7082 O   0  0  0  0  0  0  0  0  0  0  0  0
    4.9913   -3.5435   -0.2203 C   0  0  2  0  0  0  0  0  0  0  0  0
    5.3149   -4.8703    0.0941 O   0  0  0  0  0  0  0  0  0  0  0  0
    5.2253   -5.0015    1.3674 C   0  0  2  0  0  0  0  0  0  0  0  0
    5.7018   -6.4092    1.7432 C   0  0  0  0  0  0  0  0  0  0  0  0
    3.6172   -4.8408    1.5103 C   0  0  0  0  0  0  0  0  0  0  0  0
    2.8951   -4.4347    0.0779 C   0  0  0  0  0  0  0  0  0  0  0  0
    3.8658   -3.8546   -1.0802 C   0  0  1  0  0  0  0  0  0  0  0  0
    6.1920   -4.0422    1.8787 O   0  0  0  0  0  0  0  0  0  0  0  0
    2.8512   -3.5225   -3.6903 H   0  0  0  0  0  0  0  0  0  0  0  0
    2.3521   -1.8386   -3.5212 H   0  0  0  0  0  0  0  0  0  0  0  0
    1.6020   -3.0808   -2.5303 H   0  0  0  0  0  0  0  0  0  0  0  0
    3.2274   -1.7666   -1.2295 H   0  0  0  0  0  0  0  0  0  0  0  0
    5.2570   -2.7763   -3.2822 H   0  0  0  0  0  0  0  0  0  0  0  0
    4.8227   -1.1101   -3.0086 H   0  0  0  0  0  0  0  0  0  0  0  0
    7.1051   -1.8884   -2.1122 H   0  0  0  0  0  0  0  0  0  0  0  0
    6.1891   -0.9923   -0.9874 H   0  0  0  0  0  0  0  0  0  0  0  0
    6.8552   -3.9444   -1.1109 H   0  0  0  0  0  0  0  0  0  0  0  0
    7.9108   -3.1888    0.9879 H   0  0  0  0  0  0  0  0  0  0  0  0
    5.0165   -2.7164    3.3840 H   0  0  0  0  0  0  0  0  0  0  0  0
    3.6772   -1.6270    3.0548 H   0  0  0  0  0  0  0  0  0  0  0  0
    5.2572   -0.9781    3.5323 H   0  0  0  0  0  0  0  0  0  0  0  0
    4.5223   -0.2065   -0.0738 H   0  0  0  0  0  0  0  0  0  0  0  0
    5.6020    0.4546    1.1651 H   0  0  0  0  0  0  0  0  0  0  0  0
    3.8903    0.1367    1.5136 H   0  0  0  0  0  0  0  0  0  0  0  0
    6.7432   -6.5473    1.4489 H   0  0  0  0  0  0  0  0  0  0  0  0
    5.0917   -7.1621    1.2393 H   0  0  0  0  0  0  0  0  0  0  0  0
    5.6148   -6.5476    2.8217 H   0  0  0  0  0  0  0  0  0  0  0  0
    3.1956   -5.7832    1.8644 H   0  0  0  0  0  0  0  0  0  0  0  0
    3.4012   -4.1143    2.2915 H   0  0  0  0  0  0  0  0  0  0  0  0
    2.3921   -5.3147   -0.3220 H   0  0  0  0  0  0  0  0  0  0  0  0
    2.1096   -3.7086    0.2816 H   0  0  0  0  0  0  0  0  0  0  0  0
    4.2148   -4.6314   -1.7743 H   0  0  0  0  0  0  0  0  0  0  0  0
  1  2  1  0
  1 20  1  0
  1 21  1  0
  1 22  1  0
  2 18  1  0
  2  3  1  0
  2 23  1  1
  3  4  1  0
  3 24  1  0
  3 25  1  0
  4  5  1  0
  4 26  1  0
  4 27  1  0
  5 12  1  0
  5  6  1  0
  5 28  1  6
  6 19  1  0
  6  7  1  0
  6 29  1  6
  7  8  1  0
  8  9  1  0
  8 10  1  0
  8 11  1  0
  9 30  1  0
  9 31  1  0
  9 32  1  0
 10 33  1  0
 10 34  1  0
 10 35  1  0
 12 11  1  1
 12 18  1  0
 12 13  1  0
 13 14  1  0
 14 15  1  6
 14 16  1  0
 14 19  1  0
 15 36  1  0
 15 37  1  0
 15 38  1  0
 16 17  1  0
 16 39  1  0
 16 40  1  0
 17 18  1  0
 17 41  1  0
 17 42  1  0
 18 43  1  6
M  END
>  <i_m_ct_stereo_status>  (311) 
1

>  <s_m_source_file>  (311) 
/var/tmp/pbs.5076255.sched01/tmpnpseqx1a/1202b9de7rm.sdf

>  <i_m_source_file_index>  (311) 
28

>  <i_lp_mmshare_version>  (311) 
48012

>  <i_f3d_flags>  (311) 
0

>  <s_epik_input>  (311) 
W0NIMl0xW0NIMl1bQ0BASF0oW0NIM10pW0NAQEhdMltDSDJdW0NIMl1bQ0BdKE8zKShbQ0gzXSlPW0NAQEhdKFtDQEhdMVtDQEBdMjM0KU9DKE80KShbQ0gzXSlbQ0gzXQ==

>  <s_epik_cmdline>  (311) 
J2VwaWtfcHl0aG9uJywgJy1waHQnLCAnMi4wJywgJy1waCcsICc3LjAnLCAnLXRuJywgJzgnLCAnLW1hJywgJzIwMCcsICctaW1hZScsICc8aW5maWxlLm1hZT4nLCAnLW9tYWUnLCAnPG91dGZpbGUubWFlPic=

>  <r_lp_tautomer_probability>  (311) 
1

>  <r_epik_Ionization_Penalty>  (311) 
2.63117e-14

>  <r_epik_Ionization_Penalty_Charging>  (311) 
0

>  <r_epik_Ionization_Penalty_Neutral>  (311) 
2.63117e-14

>  <r_epik_State_Penalty>  (311) 
-0

>  <r_epik_Charging_Adjusted_Penalty>  (311) 
0

>  <i_epik_Tot_Q>  (311) 
0

>  <i_epik_Tot_abs_Q>  (311) 
0

>  <s_epik_Chemistry_Notes>  (311) 
This compound contains an acetal/aminal-like group ( X-CH(R)-Y where X, Y are N, S, or O) that may be acid/base labile, releasing an aldehyde.

>  <s_lp_Force_Field>  (311) 
OPLS3e

>  <r_lp_Energy>  (311) 
155.104

>  <b_lp_Chiralities_Consistent>  (311) 
1

>  <s_lp_Variant>  (311) 
108:0-1

>  <s_i_glide_gridfile>  (311) 
pfpi4k_grid

>  <i_i_glide_lignum>  (311) 
28

>  <i_i_glide_rotatable_bonds>  (311) 
0

>  <r_i_docking_score>  (311) 
-3.32386

>  <r_i_glide_ligand_efficiency>  (311) 
-0.17494

>  <r_i_glide_ligand_efficiency_sa>  (311) 
-0.466811

>  <r_i_glide_ligand_efficiency_ln>  (311) 
-0.842671

>  <r_i_glide_gscore>  (311) 
-3.32386

>  <r_i_glide_lipo>  (311) 
-0.445155

>  <r_i_glide_hbond>  (311) 
0

>  <r_i_glide_metal>  (311) 
-0

>  <r_i_glide_rewards>  (311) 
-1.91581

>  <r_i_glide_evdw>  (311) 
-21.4532

>  <r_i_glide_ecoul>  (311) 
0.731721

>  <r_i_glide_erotb>  (311) 
0

>  <r_i_glide_esite>  (311) 
0

>  <r_i_glide_emodel>  (311) 
-24.8432

>  <r_i_glide_energy>  (311) 
-20.7215

>  <r_i_glide_einternal>  (311) 
0

>  <r_i_glide_intrahb_reward>  (311) 
-0

>  <i_i_glide_confnum>  (311) 
1

>  <i_i_glide_posenum>  (311) 
4

>  <r_i_glide_eff_state_penalty>  (311) 
0

>  <ligand_id>  (311) 
108

>  <original_smiles>  (311) 
CC1CCC2C3OC(C)(C)OC24OC(C)(CCC14)O3

>  <smiles>  (311) 
[H]C([H])([H])C1(C([H])([H])[H])OC2([H])OC3(C([H])([H])[H])OC4(O1)C2([H])C([H])([H])C([H])([H])C([H])(C([H])([H])[H])C4([H])C([H])([H])C3([H])[H]

$$$$
108:0:1
     RDKit          3D

 43 46  0  0  1  0  0  0  0  0999 V2000
    3.2829   -1.7987   -3.1647 C   0  0  0  0  0  0  0  0  0  0  0  0
    3.9714   -2.0187   -1.8114 C   0  0  2  0  0  0  0  0  0  0  0  0
    5.5206   -1.7637   -1.9063 C   0  0  0  0  0  0  0  0  0  0  0  0
    6.3889   -2.0662   -0.6227 C   0  0  0  0  0  0  0  0  0  0  0  0
    6.0128   -3.4249    0.0143 C   0  0  1  0  0  0  0  0  0  0  0  0
    6.0199   -3.7008    1.5895 C   0  0  1  0  0  0  0  0  0  0  0  0
    5.8150   -2.4707    2.1775 O   0  0  0  0  0  0  0  0  0  0  0  0
    4.5249   -2.0250    1.9393 C   0  0  0  0  0  0  0  0  0  0  0  0
    3.6645   -2.2939    3.1987 C   0  0  0  0  0  0  0  0  0  0  0  0
    4.5582   -0.4970    1.7171 C   0  0  0  0  0  0  0  0  0  0  0  0
    3.9009   -2.6193    0.8181 O   0  0  0  0  0  0  0  0  0  0  0  0
    4.5850   -3.5532   -0.1084 C   0  0  2  0  0  0  0  0  0  0  0  0
    4.5670   -4.9520   -0.0213 O   0  0  0  0  0  0  0  0  0  0  0  0
    4.0684   -5.2637    1.1206 C   0  0  2  0  0  0  0  0  0  0  0  0
    4.1670   -6.7854    1.2922 C   0  0  0  0  0  0  0  0  0  0  0  0
    2.5514   -4.7724    0.8542 C   0  0  0  0  0  0  0  0  0  0  0  0
    2.3789   -3.9750   -0.5900 C   0  0  0  0  0  0  0  0  0  0  0  0
    3.7363   -3.4580   -1.2929 C   0  0  1  0  0  0  0  0  0  0  0  0
    4.9686   -4.6435    2.0800 O   0  0  0  0  0  0  0  0  0  0  0  0
    3.6687   -2.4775   -3.9277 H   0  0  0  0  0  0  0  0  0  0  0  0
    3.4172   -0.7743   -3.5180 H   0  0  0  0  0  0  0  0  0  0  0  0
    2.2108   -1.9765   -3.0760 H   0  0  0  0  0  0  0  0  0  0  0  0
    3.5365   -1.2908   -1.1258 H   0  0  0  0  0  0  0  0  0  0  0  0
    5.9086   -2.3861   -2.7146 H   0  0  0  0  0  0  0  0  0  0  0  0
    5.6819   -0.7282   -2.2072 H   0  0  0  0  0  0  0  0  0  0  0  0
    7.4370   -2.1210   -0.9157 H   0  0  0  0  0  0  0  0  0  0  0  0
    6.3761   -1.2430    0.0805 H   0  0  0  0  0  0  0  0  0  0  0  0
    6.5343   -4.2264   -0.5154 H   0  0  0  0  0  0  0  0  0  0  0  0
    6.9934   -4.0708    1.9108 H   0  0  0  0  0  0  0  0  0  0  0  0
    3.6180   -3.3477    3.4639 H   0  0  0  0  0  0  0  0  0  0  0  0
    2.6442   -1.9489    3.0311 H   0  0  0  0  0  0  0  0  0  0  0  0
    4.0807   -1.7557    4.0514 H   0  0  0  0  0  0  0  0  0  0  0  0
    4.6682   -0.2453    0.6654 H   0  0  0  0  0  0  0  0  0  0  0  0
    5.3795   -0.0607    2.2864 H   0  0  0  0  0  0  0  0  0  0  0  0
    3.6218   -0.0438    2.0437 H   0  0  0  0  0  0  0  0  0  0  0  0
    5.2096   -7.1045    1.2724 H   0  0  0  0  0  0  0  0  0  0  0  0
    3.6318   -7.2857    0.4850 H   0  0  0  0  0  0  0  0  0  0  0  0
    3.7228   -7.0734    2.2472 H   0  0  0  0  0  0  0  0  0  0  0  0
    1.8975   -5.6451    0.8576 H   0  0  0  0  0  0  0  0  0  0  0  0
    2.2281   -4.1562    1.6928 H   0  0  0  0  0  0  0  0  0  0  0  0
    1.8552   -4.6328   -1.2861 H   0  0  0  0  0  0  0  0  0  0  0  0
    1.7289   -3.1155   -0.4512 H   0  0  0  0  0  0  0  0  0  0  0  0
    4.0918   -4.1654   -2.0470 H   0  0  0  0  0  0  0  0  0  0  0  0
  1  2  1  0
  1 20  1  0
  1 21  1  0
  1 22  1  0
  2 18  1  0
  2  3  1  0
  2 23  1  1
  3  4  1  0
  3 24  1  0
  3 25  1  0
  4  5  1  0
  4 26  1  0
  4 27  1  0
  5 12  1  0
  5  6  1  0
  5 28  1  6
  6 19  1  0
  6  7  1  0
  6 29  1  1
  7  8  1  0
  8  9  1  0
  8 10  1  0
  8 11  1  0
  9 30  1  0
  9 31  1  0
  9 32  1  0
 10 33  1  0
 10 34  1  0
 10 35  1  0
 12 11  1  1
 12 18  1  0
 12 13  1  0
 13 14  1  0
 14 15  1  1
 14 16  1  0
 14 19  1  0
 15 36  1  0
 15 37  1  0
 15 38  1  0
 16 17  1  0
 16 39  1  0
 16 40  1  0
 17 18  1  0
 17 41  1  0
 17 42  1  0
 18 43  1  6
M  END
>  <i_m_ct_stereo_status>  (312) 
1

>  <s_m_source_file>  (312) 
/var/tmp/pbs.5076255.sched01/tmpnpseqx1a/1202b9de7rm.sdf

>  <i_m_source_file_index>  (312) 
28

>  <i_lp_mmshare_version>  (312) 
48012

>  <i_f3d_flags>  (312) 
0

>  <s_epik_input>  (312) 
W0NIMl0xW0NIMl1bQ0BASF0oW0NIM10pW0NAQEhdMltDSDJdW0NIMl1bQ0BdKE8zKShbQ0gzXSlPW0NAQEhdKFtDQEhdMVtDQEBdMjM0KU9DKE80KShbQ0gzXSlbQ0gzXQ==

>  <s_epik_cmdline>  (312) 
J2VwaWtfcHl0aG9uJywgJy1waHQnLCAnMi4wJywgJy1waCcsICc3LjAnLCAnLXRuJywgJzgnLCAnLW1hJywgJzIwMCcsICctaW1hZScsICc8aW5maWxlLm1hZT4nLCAnLW9tYWUnLCAnPG91dGZpbGUubWFlPic=

>  <r_lp_tautomer_probability>  (312) 
1

>  <r_epik_Ionization_Penalty>  (312) 
2.63117e-14

>  <r_epik_Ionization_Penalty_Charging>  (312) 
0

>  <r_epik_Ionization_Penalty_Neutral>  (312) 
2.63117e-14

>  <r_epik_State_Penalty>  (312) 
-0

>  <r_epik_Charging_Adjusted_Penalty>  (312) 
0

>  <i_epik_Tot_Q>  (312) 
0

>  <i_epik_Tot_abs_Q>  (312) 
0

>  <s_epik_Chemistry_Notes>  (312) 
This compound contains an acetal/aminal-like group ( X-CH(R)-Y where X, Y are N, S, or O) that may be acid/base labile, releasing an aldehyde.

>  <s_lp_Force_Field>  (312) 
OPLS3e

>  <r_lp_Energy>  (312) 
155.104

>  <b_lp_Chiralities_Consistent>  (312) 
1

>  <s_lp_Variant>  (312) 
108:0-1

>  <s_i_glide_gridfile>  (312) 
pfpi4k_grid

>  <i_i_glide_lignum>  (312) 
28

>  <i_i_glide_rotatable_bonds>  (312) 
0

>  <r_i_docking_score>  (312) 
-3.07269

>  <r_i_glide_ligand_efficiency>  (312) 
-0.161721

>  <r_i_glide_ligand_efficiency_sa>  (312) 
-0.431536

>  <r_i_glide_ligand_efficiency_ln>  (312) 
-0.778993

>  <r_i_glide_gscore>  (312) 
-3.07269

>  <r_i_glide_lipo>  (312) 
-0.335767

>  <r_i_glide_hbond>  (312) 
0

>  <r_i_glide_metal>  (312) 
-0

>  <r_i_glide_rewards>  (312) 
-1.7915

>  <r_i_glide_evdw>  (312) 
-21.1796

>  <r_i_glide_ecoul>  (312) 
0.757059

>  <r_i_glide_erotb>  (312) 
0

>  <r_i_glide_esite>  (312) 
0

>  <r_i_glide_emodel>  (312) 
-24.248

>  <r_i_glide_energy>  (312) 
-20.4225

>  <r_i_glide_einternal>  (312) 
0

>  <r_i_glide_intrahb_reward>  (312) 
-0

>  <i_i_glide_confnum>  (312) 
2

>  <i_i_glide_posenum>  (312) 
12

>  <r_i_glide_eff_state_penalty>  (312) 
0

>  <ligand_id>  (312) 
108

>  <original_smiles>  (312) 
CC1CCC2C3OC(C)(C)OC24OC(C)(CCC14)O3

>  <smiles>  (312) 
[H]C([H])([H])C1(C([H])([H])[H])OC2([H])OC3(C([H])([H])[H])OC4(O1)C2([H])C([H])([H])C([H])([H])C([H])(C([H])([H])[H])C4([H])C([H])([H])C3([H])[H]

$$$$
108:0:2
     RDKit          3D

 43 46  0  0  1  0  0  0  0  0999 V2000
    3.7831   -2.6311   -2.7142 C   0  0  0  0  0  0  0  0  0  0  0  0
    3.9381   -2.1775   -1.2534 C   0  0  2  0  0  0  0  0  0  0  0  0
    5.1372   -1.1676   -1.0798 C   0  0  0  0  0  0  0  0  0  0  0  0
    5.4811   -0.7055    0.3919 C   0  0  0  0  0  0  0  0  0  0  0  0
    5.5058   -1.9013    1.3793 C   0  0  1  0  0  0  0  0  0  0  0  0
    5.0191   -1.8104    2.9047 C   0  0  1  0  0  0  0  0  0  0  0  0
    4.1105   -0.7812    2.9444 O   0  0  0  0  0  0  0  0  0  0  0  0
    2.9553   -1.1345    2.2679 C   0  0  0  0  0  0  0  0  0  0  0  0
    1.8820   -1.5576    3.3013 C   0  0  0  0  0  0  0  0  0  0  0  0
    2.4226    0.1069    1.5255 C   0  0  0  0  0  0  0  0  0  0  0  0
    3.1222   -2.1825    1.3243 O   0  0  0  0  0  0  0  0  0  0  0  0
    4.4355   -2.7838    0.9866 C   0  0  2  0  0  0  0  0  0  0  0  0
    4.9823   -3.9322    1.5715 O   0  0  0  0  0  0  0  0  0  0  0  0
    4.2673   -4.2247    2.5993 C   0  0  2  0  0  0  0  0  0  0  0  0
    4.9311   -5.3977    3.3324 C   0  0  0  0  0  0  0  0  0  0  0  0
    2.9121   -4.6672    1.8283 C   0  0  0  0  0  0  0  0  0  0  0  0
    2.9922   -4.3974    0.1958 C   0  0  0  0  0  0  0  0  0  0  0  0
    4.1523   -3.3943   -0.3124 C   0  0  1  0  0  0  0  0  0  0  0  0
    4.3758   -3.0482    3.4473 O   0  0  0  0  0  0  0  0  0  0  0  0
    4.6777   -3.1446   -3.0704 H   0  0  0  0  0  0  0  0  0  0  0  0
    3.5949   -1.7809   -3.3721 H   0  0  0  0  0  0  0  0  0  0  0  0
    2.9419   -3.3204   -2.8192 H   0  0  0  0  0  0  0  0  0  0  0  0
    3.0156   -1.6550   -0.9946 H   0  0  0  0  0  0  0  0  0  0  0  0
    6.0286   -1.6375   -1.4992 H   0  0  0  0  0  0  0  0  0  0  0  0
    4.9482   -0.2817   -1.6891 H   0  0  0  0  0  0  0  0  0  0  0  0
    6.4712   -0.2514    0.3879 H   0  0  0  0  0  0  0  0  0  0  0  0
    4.8504    0.1108    0.7168 H   0  0  0  0  0  0  0  0  0  0  0  0
    6.4786   -2.3961    1.3180 H   0  0  0  0  0  0  0  0  0  0  0  0
    5.8290   -1.5272    3.5666 H   0  0  0  0  0  0  0  0  0  0  0  0
    2.1927   -2.4013    3.9123 H   0  0  0  0  0  0  0  0  0  0  0  0
    0.9641   -1.8396    2.7851 H   0  0  0  0  0  0  0  0  0  0  0  0
    1.6676   -0.7232    3.9706 H   0  0  0  0  0  0  0  0  0  0  0  0
    2.8037    0.1466    0.5096 H   0  0  0  0  0  0  0  0  0  0  0  0
    2.6965    1.0185    2.0596 H   0  0  0  0  0  0  0  0  0  0  0  0
    1.3372    0.0611    1.4329 H   0  0  0  0  0  0  0  0  0  0  0  0
    5.9306   -5.1186    3.6693 H   0  0  0  0  0  0  0  0  0  0  0  0
    5.0120   -6.2577    2.6662 H   0  0  0  0  0  0  0  0  0  0  0  0
    4.3279   -5.6754    4.1993 H   0  0  0  0  0  0  0  0  0  0  0  0
    2.7406   -5.7295    2.0030 H   0  0  0  0  0  0  0  0  0  0  0  0
    2.0649   -4.1554    2.2833 H   0  0  0  0  0  0  0  0  0  0  0  0
    3.1427   -5.3538   -0.3074 H   0  0  0  0  0  0  0  0  0  0  0  0
    2.0273   -4.0333   -0.1511 H   0  0  0  0  0  0  0  0  0  0  0  0
    5.0270   -3.9533   -0.6549 H   0  0  0  0  0  0  0  0  0  0  0  0
  1  2  1  0
  1 20  1  0
  1 21  1  0
  1 22  1  0
  2 18  1  0
  2  3  1  0
  2 23  1  1
  3  4  1  0
  3 24  1  0
  3 25  1  0
  4  5  1  0
  4 26  1  0
  4 27  1  0
  5 12  1  0
  5  6  1  0
  5 28  1  1
  6 19  1  0
  6  7  1  0
  6 29  1  1
  7  8  1  0
  8  9  1  0
  8 10  1  0
  8 11  1  0
  9 30  1  0
  9 31  1  0
  9 32  1  0
 10 33  1  0
 10 34  1  0
 10 35  1  0
 12 11  1  1
 12 18  1  0
 12 13  1  0
 13 14  1  0
 14 15  1  1
 14 16  1  0
 14 19  1  0
 15 36  1  0
 15 37  1  0
 15 38  1  0
 16 17  1  0
 16 39  1  0
 16 40  1  0
 17 18  1  0
 17 41  1  0
 17 42  1  0
 18 43  1  6
M  END
>  <i_m_ct_stereo_status>  (313) 
1

>  <s_m_source_file>  (313) 
/var/tmp/pbs.5076255.sched01/tmpnpseqx1a/1202b9de7rm.sdf

>  <i_m_source_file_index>  (313) 
28

>  <i_lp_mmshare_version>  (313) 
48012

>  <i_f3d_flags>  (313) 
0

>  <s_epik_input>  (313) 
W0NIMl0xW0NIMl1bQ0BASF0oW0NIM10pW0NAQEhdMltDSDJdW0NIMl1bQ0BdKE8zKShbQ0gzXSlPW0NAQEhdKFtDQEhdMVtDQEBdMjM0KU9DKE80KShbQ0gzXSlbQ0gzXQ==

>  <s_epik_cmdline>  (313) 
J2VwaWtfcHl0aG9uJywgJy1waHQnLCAnMi4wJywgJy1waCcsICc3LjAnLCAnLXRuJywgJzgnLCAnLW1hJywgJzIwMCcsICctaW1hZScsICc8aW5maWxlLm1hZT4nLCAnLW9tYWUnLCAnPG91dGZpbGUubWFlPic=

>  <r_lp_tautomer_probability>  (313) 
1

>  <r_epik_Ionization_Penalty>  (313) 
2.63117e-14

>  <r_epik_Ionization_Penalty_Charging>  (313) 
0

>  <r_epik_Ionization_Penalty_Neutral>  (313) 
2.63117e-14

>  <r_epik_State_Penalty>  (313) 
-0

>  <r_epik_Charging_Adjusted_Penalty>  (313) 
0

>  <i_epik_Tot_Q>  (313) 
0

>  <i_epik_Tot_abs_Q>  (313) 
0

>  <s_epik_Chemistry_Notes>  (313) 
This compound contains an acetal/aminal-like group ( X-CH(R)-Y where X, Y are N, S, or O) that may be acid/base labile, releasing an aldehyde.

>  <s_lp_Force_Field>  (313) 
OPLS3e

>  <r_lp_Energy>  (313) 
155.104

>  <b_lp_Chiralities_Consistent>  (313) 
1

>  <s_lp_Variant>  (313) 
108:0-1

>  <s_i_glide_gridfile>  (313) 
pfpi4k_grid

>  <i_i_glide_lignum>  (313) 
28

>  <i_i_glide_rotatable_bonds>  (313) 
0

>  <r_i_docking_score>  (313) 
-3.0665

>  <r_i_glide_ligand_efficiency>  (313) 
-0.161395

>  <r_i_glide_ligand_efficiency_sa>  (313) 
-0.430666

>  <r_i_glide_ligand_efficiency_ln>  (313) 
-0.777423

>  <r_i_glide_gscore>  (313) 
-3.0665

>  <r_i_glide_lipo>  (313) 
-0.287475

>  <r_i_glide_hbond>  (313) 
0

>  <r_i_glide_metal>  (313) 
-0

>  <r_i_glide_rewards>  (313) 
-1.70127

>  <r_i_glide_evdw>  (313) 
-20.9748

>  <r_i_glide_ecoul>  (313) 
-0.113413

>  <r_i_glide_erotb>  (313) 
0

>  <r_i_glide_esite>  (313) 
-0.0119965

>  <r_i_glide_emodel>  (313) 
-24.9113

>  <r_i_glide_energy>  (313) 
-21.0882

>  <r_i_glide_einternal>  (313) 
0

>  <r_i_glide_intrahb_reward>  (313) 
-0

>  <i_i_glide_confnum>  (313) 
2

>  <i_i_glide_posenum>  (313) 
18

>  <r_i_glide_eff_state_penalty>  (313) 
0

>  <ligand_id>  (313) 
108

>  <original_smiles>  (313) 
CC1CCC2C3OC(C)(C)OC24OC(C)(CCC14)O3

>  <smiles>  (313) 
[H]C([H])([H])C1(C([H])([H])[H])OC2([H])OC3(C([H])([H])[H])OC4(O1)C2([H])C([H])([H])C([H])([H])C([H])(C([H])([H])[H])C4([H])C([H])([H])C3([H])[H]

$$$$
109:0:0
     RDKit          3D

 18 20  0  0  1  0  0  0  0  0999 V2000
    4.9953  -11.4930    3.6901 Cl  0  0  0  0  0  0  0  0  0  0  0  0
    3.3860  -10.8939    3.5491 C   0  0  0  0  0  0  0  0  0  0  0  0
    2.3256  -11.5845    4.1505 C   0  0  0  0  0  0  0  0  0  0  0  0
    1.0210  -11.0852    4.0208 C   0  0  0  0  0  0  0  0  0  0  0  0
    0.7842   -9.8968    3.2981 C   0  0  0  0  0  0  0  0  0  0  0  0
   -0.5226   -9.3649    3.1585 C   0  0  0  0  0  0  0  0  0  0  0  0
   -0.8393   -8.2240    2.4900 N   0  0  0  0  0  0  0  0  0  0  0  0
    0.2382   -7.6089    1.9349 C   0  0  0  0  0  0  0  0  0  0  0  0
    0.2479   -6.4864    1.2193 N   0  0  0  0  0  0  0  0  0  0  0  0
    1.6070   -6.2732    0.9092 N   0  0  0  0  0  0  0  0  0  0  0  0
    2.3810   -7.2047    1.3964 N   0  0  0  0  0  0  0  0  0  0  0  0
    1.5070   -8.0101    2.0064 N   0  0  0  0  0  0  0  0  0  0  0  0
    1.8369   -9.1717    2.6867 C   0  0  0  0  0  0  0  0  0  0  0  0
    3.1403   -9.7063    2.8340 C   0  0  0  0  0  0  0  0  0  0  0  0
    2.5095  -12.4965    4.7019 H   0  0  0  0  0  0  0  0  0  0  0  0
    0.2099  -11.6208    4.4854 H   0  0  0  0  0  0  0  0  0  0  0  0
   -1.3681   -9.8554    3.6081 H   0  0  0  0  0  0  0  0  0  0  0  0
    3.9770   -9.1921    2.3855 H   0  0  0  0  0  0  0  0  0  0  0  0
  1  2  1  0
  2 14  2  0
  2  3  1  0
  3  4  2  0
  3 15  1  0
  4  5  1  0
  4 16  1  0
  5 13  2  0
  5  6  1  0
  6  7  2  0
  6 17  1  0
  7  8  1  0
  8 12  1  0
  8  9  2  0
  9 10  1  0
 10 11  2  0
 11 12  1  0
 12 13  1  0
 13 14  1  0
 14 18  1  0
M  END
>  <i_m_ct_stereo_status>  (314) 
1

>  <s_m_source_file>  (314) 
/var/tmp/pbs.5076255.sched01/tmpnpseqx1a/1202b9de7rm.sdf

>  <i_m_source_file_index>  (314) 
29

>  <i_lp_mmshare_version>  (314) 
48012

>  <i_f3d_flags>  (314) 
0

>  <s_epik_input>  (314) 
W2NIXTFbY0hdYyhDbClbY0hdYyhjMTIpbjNjKG5bY0hdMilubm4z

>  <s_epik_cmdline>  (314) 
J2VwaWtfcHl0aG9uJywgJy1waHQnLCAnMi4wJywgJy1waCcsICc3LjAnLCAnLXRuJywgJzgnLCAnLW1hJywgJzIwMCcsICctaW1hZScsICc8aW5maWxlLm1hZT4nLCAnLW9tYWUnLCAnPG91dGZpbGUubWFlPic=

>  <r_lp_tautomer_probability>  (314) 
1

>  <r_epik_Ionization_Penalty>  (314) 
4.94646e-12

>  <r_epik_Ionization_Penalty_Charging>  (314) 
0

>  <r_epik_Ionization_Penalty_Neutral>  (314) 
4.94646e-12

>  <r_epik_State_Penalty>  (314) 
-0

>  <r_epik_Charging_Adjusted_Penalty>  (314) 
0

>  <i_epik_Tot_Q>  (314) 
0

>  <i_epik_Tot_abs_Q>  (314) 
0

>  <s_lp_Force_Field>  (314) 
OPLS3e

>  <r_lp_Energy>  (314) 
23.0082

>  <b_lp_Chiralities_Consistent>  (314) 
1

>  <s_lp_Variant>  (314) 
109:0-1

>  <s_i_glide_gridfile>  (314) 
pfpi4k_grid

>  <i_i_glide_lignum>  (314) 
29

>  <i_i_glide_rotatable_bonds>  (314) 
0

>  <r_i_docking_score>  (314) 
-4.14417

>  <r_i_glide_ligand_efficiency>  (314) 
-0.296012

>  <r_i_glide_ligand_efficiency_sa>  (314) 
-0.713432

>  <r_i_glide_ligand_efficiency_ln>  (314) 
-1.1388

>  <r_i_glide_gscore>  (314) 
-4.14417

>  <r_i_glide_lipo>  (314) 
-0.143778

>  <r_i_glide_hbond>  (314) 
0

>  <r_i_glide_metal>  (314) 
-0

>  <r_i_glide_rewards>  (314) 
-2.00725

>  <r_i_glide_evdw>  (314) 
-19.4336

>  <r_i_glide_ecoul>  (314) 
-5.01495

>  <r_i_glide_erotb>  (314) 
0

>  <r_i_glide_esite>  (314) 
-0.269223

>  <r_i_glide_emodel>  (314) 
-32.0994

>  <r_i_glide_energy>  (314) 
-24.4486

>  <r_i_glide_einternal>  (314) 
0

>  <r_i_glide_intrahb_reward>  (314) 
-0

>  <i_i_glide_confnum>  (314) 
1

>  <i_i_glide_posenum>  (314) 
1

>  <r_i_glide_eff_state_penalty>  (314) 
0

>  <ligand_id>  (314) 
109

>  <original_smiles>  (314) 
Clc1ccc2cnc3nnnn3c2c1

>  <smiles>  (314) 
[H]c1c(Cl)c([H])c2c(c([H])nc3nnnn32)c1[H]

$$$$
109:0:1
     RDKit          3D

 18 20  0  0  1  0  0  0  0  0999 V2000
    3.4217   -1.8558   -3.7621 Cl  0  0  0  0  0  0  0  0  0  0  0  0
    3.9284   -2.3920   -2.2043 C   0  0  0  0  0  0  0  0  0  0  0  0
    5.0797   -1.8426   -1.6205 C   0  0  0  0  0  0  0  0  0  0  0  0
    5.4902   -2.2953   -0.3565 C   0  0  0  0  0  0  0  0  0  0  0  0
    4.7515   -3.2908    0.3140 C   0  0  0  0  0  0  0  0  0  0  0  0
    5.1424   -3.7657    1.5906 C   0  0  0  0  0  0  0  0  0  0  0  0
    4.4880   -4.7206    2.3050 N   0  0  0  0  0  0  0  0  0  0  0  0
    3.3827   -5.2146    1.6774 C   0  0  0  0  0  0  0  0  0  0  0  0
    2.5322   -6.1396    2.1154 N   0  0  0  0  0  0  0  0  0  0  0  0
    1.5758   -6.2649    1.0853 N   0  0  0  0  0  0  0  0  0  0  0  0
    1.8164   -5.4691    0.0807 N   0  0  0  0  0  0  0  0  0  0  0  0
    2.9299   -4.8430    0.4794 N   0  0  0  0  0  0  0  0  0  0  0  0
    3.5848   -3.8658   -0.2510 C   0  0  0  0  0  0  0  0  0  0  0  0
    3.1971   -3.3820   -1.5232 C   0  0  0  0  0  0  0  0  0  0  0  0
    5.6340   -1.0788   -2.1434 H   0  0  0  0  0  0  0  0  0  0  0  0
    6.3727   -1.8722    0.0967 H   0  0  0  0  0  0  0  0  0  0  0  0
    6.0212   -3.3662    2.0759 H   0  0  0  0  0  0  0  0  0  0  0  0
    2.3192   -3.7948   -2.0001 H   0  0  0  0  0  0  0  0  0  0  0  0
  1  2  1  0
  2 14  2  0
  2  3  1  0
  3  4  2  0
  3 15  1  0
  4  5  1  0
  4 16  1  0
  5 13  2  0
  5  6  1  0
  6  7  2  0
  6 17  1  0
  7  8  1  0
  8 12  1  0
  8  9  2  0
  9 10  1  0
 10 11  2  0
 11 12  1  0
 12 13  1  0
 13 14  1  0
 14 18  1  0
M  END
>  <i_m_ct_stereo_status>  (315) 
1

>  <s_m_source_file>  (315) 
/var/tmp/pbs.5076255.sched01/tmpnpseqx1a/1202b9de7rm.sdf

>  <i_m_source_file_index>  (315) 
29

>  <i_lp_mmshare_version>  (315) 
48012

>  <i_f3d_flags>  (315) 
0

>  <s_epik_input>  (315) 
W2NIXTFbY0hdYyhDbClbY0hdYyhjMTIpbjNjKG5bY0hdMilubm4z

>  <s_epik_cmdline>  (315) 
J2VwaWtfcHl0aG9uJywgJy1waHQnLCAnMi4wJywgJy1waCcsICc3LjAnLCAnLXRuJywgJzgnLCAnLW1hJywgJzIwMCcsICctaW1hZScsICc8aW5maWxlLm1hZT4nLCAnLW9tYWUnLCAnPG91dGZpbGUubWFlPic=

>  <r_lp_tautomer_probability>  (315) 
1

>  <r_epik_Ionization_Penalty>  (315) 
4.94646e-12

>  <r_epik_Ionization_Penalty_Charging>  (315) 
0

>  <r_epik_Ionization_Penalty_Neutral>  (315) 
4.94646e-12

>  <r_epik_State_Penalty>  (315) 
-0

>  <r_epik_Charging_Adjusted_Penalty>  (315) 
0

>  <i_epik_Tot_Q>  (315) 
0

>  <i_epik_Tot_abs_Q>  (315) 
0

>  <s_lp_Force_Field>  (315) 
OPLS3e

>  <r_lp_Energy>  (315) 
23.0082

>  <b_lp_Chiralities_Consistent>  (315) 
1

>  <s_lp_Variant>  (315) 
109:0-1

>  <s_i_glide_gridfile>  (315) 
pfpi4k_grid

>  <i_i_glide_lignum>  (315) 
29

>  <i_i_glide_rotatable_bonds>  (315) 
0

>  <r_i_docking_score>  (315) 
-3.84255

>  <r_i_glide_ligand_efficiency>  (315) 
-0.274468

>  <r_i_glide_ligand_efficiency_sa>  (315) 
-0.661507

>  <r_i_glide_ligand_efficiency_ln>  (315) 
-1.05592

>  <r_i_glide_gscore>  (315) 
-3.84255

>  <r_i_glide_lipo>  (315) 
-0.341477

>  <r_i_glide_hbond>  (315) 
0

>  <r_i_glide_metal>  (315) 
-0

>  <r_i_glide_rewards>  (315) 
-2.01523

>  <r_i_glide_evdw>  (315) 
-19.2929

>  <r_i_glide_ecoul>  (315) 
-2.16387

>  <r_i_glide_erotb>  (315) 
0

>  <r_i_glide_esite>  (315) 
-0.196622

>  <r_i_glide_emodel>  (315) 
-28.5515

>  <r_i_glide_energy>  (315) 
-21.4567

>  <r_i_glide_einternal>  (315) 
0

>  <r_i_glide_intrahb_reward>  (315) 
-0

>  <i_i_glide_confnum>  (315) 
1

>  <i_i_glide_posenum>  (315) 
22

>  <r_i_glide_eff_state_penalty>  (315) 
0

>  <ligand_id>  (315) 
109

>  <original_smiles>  (315) 
Clc1ccc2cnc3nnnn3c2c1

>  <smiles>  (315) 
[H]c1c(Cl)c([H])c2c(c([H])nc3nnnn32)c1[H]

$$$$
109:0:2
     RDKit          3D

 18 20  0  0  1  0  0  0  0  0999 V2000
    3.8136   -1.8935   -3.9212 Cl  0  0  0  0  0  0  0  0  0  0  0  0
    3.9282   -2.0251   -2.2058 C   0  0  0  0  0  0  0  0  0  0  0  0
    4.6289   -1.0562   -1.4781 C   0  0  0  0  0  0  0  0  0  0  0  0
    4.7159   -1.1646   -0.0813 C   0  0  0  0  0  0  0  0  0  0  0  0
    4.1085   -2.2526    0.5776 C   0  0  0  0  0  0  0  0  0  0  0  0
    4.1818   -2.3906    1.9861 C   0  0  0  0  0  0  0  0  0  0  0  0
    3.6283   -3.4102    2.6983 N   0  0  0  0  0  0  0  0  0  0  0  0
    2.9728   -4.3257    1.9305 C   0  0  0  0  0  0  0  0  0  0  0  0
    2.3196   -5.4160    2.3324 N   0  0  0  0  0  0  0  0  0  0  0  0
    1.8297   -5.9982    1.1458 N   0  0  0  0  0  0  0  0  0  0  0  0
    2.1499   -5.3091    0.0853 N   0  0  0  0  0  0  0  0  0  0  0  0
    2.8481   -4.2945    0.6045 N   0  0  0  0  0  0  0  0  0  0  0  0
    3.4018   -3.2579   -0.1289 C   0  0  0  0  0  0  0  0  0  0  0  0
    3.3264   -3.1062   -1.5352 C   0  0  0  0  0  0  0  0  0  0  0  0
    5.0792   -0.2223   -1.9918 H   0  0  0  0  0  0  0  0  0  0  0  0
    5.2438   -0.4074    0.4767 H   0  0  0  0  0  0  0  0  0  0  0  0
    4.7089   -1.6561    2.5774 H   0  0  0  0  0  0  0  0  0  0  0  0
    2.7974   -3.8457   -2.1199 H   0  0  0  0  0  0  0  0  0  0  0  0
  1  2  1  0
  2 14  2  0
  2  3  1  0
  3  4  2  0
  3 15  1  0
  4  5  1  0
  4 16  1  0
  5 13  2  0
  5  6  1  0
  6  7  2  0
  6 17  1  0
  7  8  1  0
  8 12  1  0
  8  9  2  0
  9 10  1  0
 10 11  2  0
 11 12  1  0
 12 13  1  0
 13 14  1  0
 14 18  1  0
M  END
>  <i_m_ct_stereo_status>  (316) 
1

>  <s_m_source_file>  (316) 
/var/tmp/pbs.5076255.sched01/tmpnpseqx1a/1202b9de7rm.sdf

>  <i_m_source_file_index>  (316) 
29

>  <i_lp_mmshare_version>  (316) 
48012

>  <i_f3d_flags>  (316) 
0

>  <s_epik_input>  (316) 
W2NIXTFbY0hdYyhDbClbY0hdYyhjMTIpbjNjKG5bY0hdMilubm4z

>  <s_epik_cmdline>  (316) 
J2VwaWtfcHl0aG9uJywgJy1waHQnLCAnMi4wJywgJy1waCcsICc3LjAnLCAnLXRuJywgJzgnLCAnLW1hJywgJzIwMCcsICctaW1hZScsICc8aW5maWxlLm1hZT4nLCAnLW9tYWUnLCAnPG91dGZpbGUubWFlPic=

>  <r_lp_tautomer_probability>  (316) 
1

>  <r_epik_Ionization_Penalty>  (316) 
4.94646e-12

>  <r_epik_Ionization_Penalty_Charging>  (316) 
0

>  <r_epik_Ionization_Penalty_Neutral>  (316) 
4.94646e-12

>  <r_epik_State_Penalty>  (316) 
-0

>  <r_epik_Charging_Adjusted_Penalty>  (316) 
0

>  <i_epik_Tot_Q>  (316) 
0

>  <i_epik_Tot_abs_Q>  (316) 
0

>  <s_lp_Force_Field>  (316) 
OPLS3e

>  <r_lp_Energy>  (316) 
23.0082

>  <b_lp_Chiralities_Consistent>  (316) 
1

>  <s_lp_Variant>  (316) 
109:0-1

>  <s_i_glide_gridfile>  (316) 
pfpi4k_grid

>  <i_i_glide_lignum>  (316) 
29

>  <i_i_glide_rotatable_bonds>  (316) 
0

>  <r_i_docking_score>  (316) 
-3.67264

>  <r_i_glide_ligand_efficiency>  (316) 
-0.262331

>  <r_i_glide_ligand_efficiency_sa>  (316) 
-0.632255

>  <r_i_glide_ligand_efficiency_ln>  (316) 
-1.00923

>  <r_i_glide_gscore>  (316) 
-3.67264

>  <r_i_glide_lipo>  (316) 
-0.0965893

>  <r_i_glide_hbond>  (316) 
0

>  <r_i_glide_metal>  (316) 
-0

>  <r_i_glide_rewards>  (316) 
-2.00725

>  <r_i_glide_evdw>  (316) 
-19.5367

>  <r_i_glide_ecoul>  (316) 
-2.81367

>  <r_i_glide_erotb>  (316) 
0

>  <r_i_glide_esite>  (316) 
-0.169913

>  <r_i_glide_emodel>  (316) 
-29.1318

>  <r_i_glide_energy>  (316) 
-22.3504

>  <r_i_glide_einternal>  (316) 
0

>  <r_i_glide_intrahb_reward>  (316) 
-0

>  <i_i_glide_confnum>  (316) 
1

>  <i_i_glide_posenum>  (316) 
2

>  <r_i_glide_eff_state_penalty>  (316) 
0

>  <ligand_id>  (316) 
109

>  <original_smiles>  (316) 
Clc1ccc2cnc3nnnn3c2c1

>  <smiles>  (316) 
[H]c1c(Cl)c([H])c2c(c([H])nc3nnnn32)c1[H]

$$$$
110:0:0
     RDKit          3D

 52 55  0  0  1  0  0  0  0  0999 V2000
    4.2148   -0.1408   -4.3635 C   0  0  0  0  0  0  0  0  0  0  0  0
    4.5235   -0.3337   -3.0569 C   0  0  0  0  0  0  0  0  0  0  0  0
    4.6726   -1.6627   -2.3292 C   0  0  2  0  0  0  0  0  0  0  0  0
    3.2667   -2.2395   -2.0059 C   0  0  1  0  0  0  0  0  0  0  0  0
    2.5049   -2.7497   -3.2568 C   0  0  0  0  0  0  0  0  0  0  0  0
    3.4242   -3.3390   -0.9383 C   0  0  2  0  0  0  0  0  0  0  0  0
    2.1995   -4.2037   -0.6701 C   0  0  0  0  0  0  0  0  0  0  0  0
    2.5757   -5.3892    0.2633 C   0  0  0  0  0  0  0  0  0  0  0  0
    3.2686   -4.9587    1.5734 C   0  0  1  0  0  0  0  0  0  0  0  0
    3.7026   -6.2292    2.3404 C   0  0  0  0  0  0  0  0  0  0  0  0
    4.4406   -3.9949    1.2414 C   0  0  2  0  0  0  0  0  0  0  0  0
    5.3903   -3.6464    2.4085 C   0  0  0  0  0  0  0  0  0  0  0  0
    4.9265   -2.5216    3.3310 C   0  0  0  0  0  0  0  0  0  0  0  0
    4.5509   -1.2550    2.5538 C   0  0  2  0  0  0  0  0  0  0  0  0
    4.7376   -0.0321    3.4655 C   0  0  0  0  0  0  0  0  0  0  0  0
    3.1699   -1.2025    2.2354 O   0  0  0  0  0  0  0  0  0  0  0  0
    2.7689   -2.3036    1.2100 O   0  0  0  0  0  0  0  0  0  0  0  0
    3.8898   -2.7674    0.4590 C   0  0  2  0  0  0  0  0  0  0  0  0
    4.7283   -1.5018    0.2449 C   0  0  1  0  0  0  0  0  0  0  0  0
    5.4081   -1.1182    1.4278 O   0  0  0  0  0  0  0  0  0  0  0  0
    5.5863   -1.5262   -1.0474 C   0  0  1  0  0  0  0  0  0  0  0  0
    6.7394   -2.5577   -0.9949 C   0  0  0  0  0  0  0  0  0  0  0  0
    4.0365   -0.9602   -5.0463 H   0  0  0  0  0  0  0  0  0  0  0  0
    4.1259    0.8608   -4.7353 H   0  0  0  0  0  0  0  0  0  0  0  0
    4.6827    0.5394   -2.4587 H   0  0  0  0  0  0  0  0  0  0  0  0
    5.1733   -2.3379   -3.0184 H   0  0  0  0  0  0  0  0  0  0  0  0
    2.6621   -1.4384   -1.5897 H   0  0  0  0  0  0  0  0  0  0  0  0
    3.0245   -3.5846   -3.7162 H   0  0  0  0  0  0  0  0  0  0  0  0
    2.3162   -1.9800   -3.9901 H   0  0  0  0  0  0  0  0  0  0  0  0
    1.5039   -3.0851   -2.9736 H   0  0  0  0  0  0  0  0  0  0  0  0
    4.2226   -3.9860   -1.3315 H   0  0  0  0  0  0  0  0  0  0  0  0
    1.4416   -3.5535   -0.2590 H   0  0  0  0  0  0  0  0  0  0  0  0
    1.7550   -4.6168   -1.5586 H   0  0  0  0  0  0  0  0  0  0  0  0
    1.6749   -5.9531    0.4756 H   0  0  0  0  0  0  0  0  0  0  0  0
    3.2532   -6.0837   -0.2361 H   0  0  0  0  0  0  0  0  0  0  0  0
    2.5291   -4.4652    2.1989 H   0  0  0  0  0  0  0  0  0  0  0  0
    4.5312   -6.7288    1.8388 H   0  0  0  0  0  0  0  0  0  0  0  0
    2.8811   -6.9425    2.4144 H   0  0  0  0  0  0  0  0  0  0  0  0
    4.0093   -5.9898    3.3620 H   0  0  0  0  0  0  0  0  0  0  0  0
    5.0952   -4.5548    0.5769 H   0  0  0  0  0  0  0  0  0  0  0  0
    5.6386   -4.5311    2.9954 H   0  0  0  0  0  0  0  0  0  0  0  0
    6.3408   -3.3482    1.9682 H   0  0  0  0  0  0  0  0  0  0  0  0
    4.1046   -2.8304    3.9790 H   0  0  0  0  0  0  0  0  0  0  0  0
    5.7757   -2.2984    3.9777 H   0  0  0  0  0  0  0  0  0  0  0  0
    4.3716    0.8410    2.9411 H   0  0  0  0  0  0  0  0  0  0  0  0
    5.7899    0.1277    3.7309 H   0  0  0  0  0  0  0  0  0  0  0  0
    4.1646   -0.1255    4.3877 H   0  0  0  0  0  0  0  0  0  0  0  0
    4.0350   -0.6804    0.0800 H   0  0  0  0  0  0  0  0  0  0  0  0
    6.0792   -0.5549   -1.0415 H   0  0  0  0  0  0  0  0  0  0  0  0
    6.4086   -3.5953   -1.0017 H   0  0  0  0  0  0  0  0  0  0  0  0
    7.3549   -2.4222   -0.0946 H   0  0  0  0  0  0  0  0  0  0  0  0
    7.4029   -2.4354   -1.8442 H   0  0  0  0  0  0  0  0  0  0  0  0
  1  2  2  0
  1 23  1  0
  1 24  1  0
  2  3  1  0
  2 25  1  0
  3 21  1  0
  3  4  1  0
  3 26  1  6
  4  5  1  0
  4  6  1  0
  4 27  1  1
  5 28  1  0
  5 29  1  0
  5 30  1  0
  6 18  1  0
  6  7  1  0
  6 31  1  6
  7  8  1  0
  7 32  1  0
  7 33  1  0
  8  9  1  0
  8 34  1  0
  8 35  1  0
  9 10  1  0
  9 11  1  0
  9 36  1  1
 10 37  1  0
 10 38  1  0
 10 39  1  0
 11 18  1  0
 11 12  1  0
 11 40  1  6
 12 13  1  0
 12 41  1  0
 12 42  1  0
 13 14  1  0
 13 43  1  0
 13 44  1  0
 14 20  1  0
 14 15  1  1
 14 16  1  0
 15 45  1  0
 15 46  1  0
 15 47  1  0
 16 17  1  0
 18 17  1  1
 18 19  1  0
 19 20  1  0
 19 21  1  0
 19 48  1  6
 21 22  1  0
 21 49  1  6
 22 50  1  0
 22 51  1  0
 22 52  1  0
M  END
>  <i_m_ct_stereo_status>  (317) 
1

>  <s_m_source_file>  (317) 
/var/tmp/pbs.5076255.sched01/tmpnpseqx1a/1202b9de7rm.sdf

>  <i_m_source_file_index>  (317) 
30

>  <i_lp_mmshare_version>  (317) 
48012

>  <i_f3d_flags>  (317) 
0

>  <s_epik_input>  (317) 
W0NAQF0xMjNbQ0BASF00W0NASF0oW0NIM10pW0NAQEhdKFtDSF09W0NIMl0pW0NASF0oW0NIM10pW0NAQEhdM09bQ0BAXShbQ0gzXSkoT08yKVtDSDJdW0NIMl1bQ0BIXTFbQ0BIXShbQ0gzXSlbQ0gyXVtDSDJdNA==

>  <s_epik_cmdline>  (317) 
J2VwaWtfcHl0aG9uJywgJy1waHQnLCAnMi4wJywgJy1waCcsICc3LjAnLCAnLXRuJywgJzgnLCAnLW1hJywgJzIwMCcsICctaW1hZScsICc8aW5maWxlLm1hZT4nLCAnLW9tYWUnLCAnPG91dGZpbGUubWFlPic=

>  <r_lp_tautomer_probability>  (317) 
1

>  <r_epik_Ionization_Penalty>  (317) 
2.52592e-14

>  <r_epik_Ionization_Penalty_Charging>  (317) 
0

>  <r_epik_Ionization_Penalty_Neutral>  (317) 
2.52592e-14

>  <r_epik_State_Penalty>  (317) 
-0

>  <r_epik_Charging_Adjusted_Penalty>  (317) 
0

>  <i_epik_Tot_Q>  (317) 
0

>  <i_epik_Tot_abs_Q>  (317) 
0

>  <s_lp_Force_Field>  (317) 
OPLS3e

>  <r_lp_Energy>  (317) 
51.4558

>  <b_lp_Chiralities_Consistent>  (317) 
1

>  <s_lp_Variant>  (317) 
110:0-1

>  <s_i_glide_gridfile>  (317) 
pfpi4k_grid

>  <i_i_glide_lignum>  (317) 
30

>  <i_i_glide_rotatable_bonds>  (317) 
1

>  <r_i_docking_score>  (317) 
-2.97125

>  <r_i_glide_ligand_efficiency>  (317) 
-0.135057

>  <r_i_glide_ligand_efficiency_sa>  (317) 
-0.378434

>  <r_i_glide_ligand_efficiency_ln>  (317) 
-0.726281

>  <r_i_glide_gscore>  (317) 
-2.97125

>  <r_i_glide_lipo>  (317) 
-0.738363

>  <r_i_glide_hbond>  (317) 
0

>  <r_i_glide_metal>  (317) 
-0

>  <r_i_glide_rewards>  (317) 
-1.38816

>  <r_i_glide_evdw>  (317) 
-23.1705

>  <r_i_glide_ecoul>  (317) 
0.780631

>  <r_i_glide_erotb>  (317) 
0.196709

>  <r_i_glide_esite>  (317) 
0

>  <r_i_glide_emodel>  (317) 
-23.4791

>  <r_i_glide_energy>  (317) 
-22.3899

>  <r_i_glide_einternal>  (317) 
2.77182

>  <r_i_glide_intrahb_reward>  (317) 
-0

>  <i_i_glide_confnum>  (317) 
2

>  <i_i_glide_posenum>  (317) 
12

>  <r_i_glide_eff_state_penalty>  (317) 
0

>  <ligand_id>  (317) 
110

>  <original_smiles>  (317) 
C=CC1C(C)C2CCC(C)C3CCC4(C)OOC32C(O4)C1C

>  <smiles>  (317) 
[H]C([H])=C([H])C1([H])C([H])(C([H])([H])[H])C2([H])OC3(C([H])([H])[H])OOC24C([H])(C([H])([H])C3([H])[H])C([H])(C([H])([H])[H])C([H])([H])C([H])([H])C4([H])C1([H])C([H])([H])[H]

$$$$
110:0:1
     RDKit          3D

 52 55  0  0  1  0  0  0  0  0999 V2000
    3.2489   -0.9568   -3.3629 C   0  0  0  0  0  0  0  0  0  0  0  0
    4.2155   -0.6363   -2.4621 C   0  0  0  0  0  0  0  0  0  0  0  0
    4.8930   -1.5297   -1.4337 C   0  0  2  0  0  0  0  0  0  0  0  0
    4.5009   -3.0442   -1.5277 C   0  0  1  0  0  0  0  0  0  0  0  0
    5.0998   -3.6869   -2.7974 C   0  0  0  0  0  0  0  0  0  0  0  0
    4.9344   -3.7729   -0.2293 C   0  0  2  0  0  0  0  0  0  0  0  0
    4.8613   -5.3020   -0.2206 C   0  0  0  0  0  0  0  0  0  0  0  0
    5.5429   -5.8603    1.0355 C   0  0  0  0  0  0  0  0  0  0  0  0
    5.0383   -5.2395    2.3626 C   0  0  1  0  0  0  0  0  0  0  0  0
    5.8639   -5.8062    3.5250 C   0  0  0  0  0  0  0  0  0  0  0  0
    5.0637   -3.6779    2.2575 C   0  0  2  0  0  0  0  0  0  0  0  0
    4.8200   -2.8980    3.5614 C   0  0  0  0  0  0  0  0  0  0  0  0
    3.3576   -2.6562    3.9419 C   0  0  0  0  0  0  0  0  0  0  0  0
    2.5411   -2.0407    2.7929 C   0  0  2  0  0  0  0  0  0  0  0  0
    1.3549   -1.2389    3.3454 C   0  0  0  0  0  0  0  0  0  0  0  0
    1.9406   -3.0448    1.9851 O   0  0  0  0  0  0  0  0  0  0  0  0
    2.9345   -3.8984    1.2463 O   0  0  0  0  0  0  0  0  0  0  0  0
    4.1818   -3.2416    1.0374 C   0  0  2  0  0  0  0  0  0  0  0  0
    3.7895   -1.7574    0.8423 C   0  0  1  0  0  0  0  0  0  0  0  0
    3.3782   -1.1543    2.0623 O   0  0  0  0  0  0  0  0  0  0  0  0
    4.7746   -0.9346    0.0119 C   0  0  1  0  0  0  0  0  0  0  0  0
    6.1218   -0.7251    0.7279 C   0  0  0  0  0  0  0  0  0  0  0  0
    2.8333   -1.9513   -3.4326 H   0  0  0  0  0  0  0  0  0  0  0  0
    2.8805   -0.1880   -4.0284 H   0  0  0  0  0  0  0  0  0  0  0  0
    4.5727    0.3788   -2.4613 H   0  0  0  0  0  0  0  0  0  0  0  0
    5.9474   -1.4682   -1.6907 H   0  0  0  0  0  0  0  0  0  0  0  0
    3.4104   -3.1425   -1.5485 H   0  0  0  0  0  0  0  0  0  0  0  0
    6.1860   -3.8037   -2.7211 H   0  0  0  0  0  0  0  0  0  0  0  0
    4.8811   -3.1290   -3.7065 H   0  0  0  0  0  0  0  0  0  0  0  0
    4.6785   -4.6740   -2.9459 H   0  0  0  0  0  0  0  0  0  0  0  0
    6.0033   -3.5269   -0.1272 H   0  0  0  0  0  0  0  0  0  0  0  0
    3.8324   -5.6470   -0.2601 H   0  0  0  0  0  0  0  0  0  0  0  0
    5.3666   -5.6925   -1.0893 H   0  0  0  0  0  0  0  0  0  0  0  0
    5.3930   -6.9403    1.0508 H   0  0  0  0  0  0  0  0  0  0  0  0
    6.6191   -5.6934    0.9524 H   0  0  0  0  0  0  0  0  0  0  0  0
    4.0089   -5.5751    2.5138 H   0  0  0  0  0  0  0  0  0  0  0  0
    6.8821   -5.4266    3.4978 H   0  0  0  0  0  0  0  0  0  0  0  0
    5.9120   -6.8924    3.4578 H   0  0  0  0  0  0  0  0  0  0  0  0
    5.4131   -5.5565    4.4814 H   0  0  0  0  0  0  0  0  0  0  0  0
    6.1010   -3.4278    2.0366 H   0  0  0  0  0  0  0  0  0  0  0  0
    5.3492   -3.3422    4.4017 H   0  0  0  0  0  0  0  0  0  0  0  0
    5.2892   -1.9198    3.4427 H   0  0  0  0  0  0  0  0  0  0  0  0
    2.8683   -3.5626    4.3036 H   0  0  0  0  0  0  0  0  0  0  0  0
    3.3650   -1.9516    4.7769 H   0  0  0  0  0  0  0  0  0  0  0  0
    0.7457   -0.8610    2.5271 H   0  0  0  0  0  0  0  0  0  0  0  0
    1.6807   -0.3955    3.9547 H   0  0  0  0  0  0  0  0  0  0  0  0
    0.7290   -1.8830    3.9599 H   0  0  0  0  0  0  0  0  0  0  0  0
    2.8744   -1.7493    0.2393 H   0  0  0  0  0  0  0  0  0  0  0  0
    4.3468    0.0665   -0.0579 H   0  0  0  0  0  0  0  0  0  0  0  0
    6.7287   -1.6232    0.8408 H   0  0  0  0  0  0  0  0  0  0  0  0
    5.9763   -0.2987    1.7237 H   0  0  0  0  0  0  0  0  0  0  0  0
    6.7037   -0.0045    0.1641 H   0  0  0  0  0  0  0  0  0  0  0  0
  1  2  2  0
  1 23  1  0
  1 24  1  0
  2  3  1  0
  2 25  1  0
  3 21  1  0
  3  4  1  0
  3 26  1  6
  4  5  1  0
  4  6  1  0
  4 27  1  6
  5 28  1  0
  5 29  1  0
  5 30  1  0
  6 18  1  0
  6  7  1  0
  6 31  1  1
  7  8  1  0
  7 32  1  0
  7 33  1  0
  8  9  1  0
  8 34  1  0
  8 35  1  0
  9 10  1  0
  9 11  1  0
  9 36  1  1
 10 37  1  0
 10 38  1  0
 10 39  1  0
 11 18  1  0
 11 12  1  0
 11 40  1  6
 12 13  1  0
 12 41  1  0
 12 42  1  0
 13 14  1  0
 13 43  1  0
 13 44  1  0
 14 20  1  0
 14 15  1  1
 14 16  1  0
 15 45  1  0
 15 46  1  0
 15 47  1  0
 16 17  1  0
 18 17  1  1
 18 19  1  0
 19 20  1  0
 19 21  1  0
 19 48  1  6
 21 22  1  0
 21 49  1  6
 22 50  1  0
 22 51  1  0
 22 52  1  0
M  END
>  <i_m_ct_stereo_status>  (318) 
1

>  <s_m_source_file>  (318) 
/var/tmp/pbs.5076255.sched01/tmpnpseqx1a/1202b9de7rm.sdf

>  <i_m_source_file_index>  (318) 
30

>  <i_lp_mmshare_version>  (318) 
48012

>  <i_f3d_flags>  (318) 
0

>  <s_epik_input>  (318) 
W0NAQF0xMjNbQ0BASF00W0NASF0oW0NIM10pW0NAQEhdKFtDSF09W0NIMl0pW0NASF0oW0NIM10pW0NAQEhdM09bQ0BAXShbQ0gzXSkoT08yKVtDSDJdW0NIMl1bQ0BIXTFbQ0BIXShbQ0gzXSlbQ0gyXVtDSDJdNA==

>  <s_epik_cmdline>  (318) 
J2VwaWtfcHl0aG9uJywgJy1waHQnLCAnMi4wJywgJy1waCcsICc3LjAnLCAnLXRuJywgJzgnLCAnLW1hJywgJzIwMCcsICctaW1hZScsICc8aW5maWxlLm1hZT4nLCAnLW9tYWUnLCAnPG91dGZpbGUubWFlPic=

>  <r_lp_tautomer_probability>  (318) 
1

>  <r_epik_Ionization_Penalty>  (318) 
2.52592e-14

>  <r_epik_Ionization_Penalty_Charging>  (318) 
0

>  <r_epik_Ionization_Penalty_Neutral>  (318) 
2.52592e-14

>  <r_epik_State_Penalty>  (318) 
-0

>  <r_epik_Charging_Adjusted_Penalty>  (318) 
0

>  <i_epik_Tot_Q>  (318) 
0

>  <i_epik_Tot_abs_Q>  (318) 
0

>  <s_lp_Force_Field>  (318) 
OPLS3e

>  <r_lp_Energy>  (318) 
51.4558

>  <b_lp_Chiralities_Consistent>  (318) 
1

>  <s_lp_Variant>  (318) 
110:0-1

>  <s_i_glide_gridfile>  (318) 
pfpi4k_grid

>  <i_i_glide_lignum>  (318) 
30

>  <i_i_glide_rotatable_bonds>  (318) 
1

>  <r_i_docking_score>  (318) 
-2.8591

>  <r_i_glide_ligand_efficiency>  (318) 
-0.129959

>  <r_i_glide_ligand_efficiency_sa>  (318) 
-0.364151

>  <r_i_glide_ligand_efficiency_ln>  (318) 
-0.69887

>  <r_i_glide_gscore>  (318) 
-2.8591

>  <r_i_glide_lipo>  (318) 
-0.622022

>  <r_i_glide_hbond>  (318) 
0

>  <r_i_glide_metal>  (318) 
-0

>  <r_i_glide_rewards>  (318) 
-1.31973

>  <r_i_glide_evdw>  (318) 
-22.9878

>  <r_i_glide_ecoul>  (318) 
0.271742

>  <r_i_glide_erotb>  (318) 
0.196709

>  <r_i_glide_esite>  (318) 
-0.00543321

>  <r_i_glide_emodel>  (318) 
-24.8798

>  <r_i_glide_energy>  (318) 
-22.7161

>  <r_i_glide_einternal>  (318) 
3.00127

>  <r_i_glide_intrahb_reward>  (318) 
-0

>  <i_i_glide_confnum>  (318) 
5

>  <i_i_glide_posenum>  (318) 
32

>  <r_i_glide_eff_state_penalty>  (318) 
0

>  <ligand_id>  (318) 
110

>  <original_smiles>  (318) 
C=CC1C(C)C2CCC(C)C3CCC4(C)OOC32C(O4)C1C

>  <smiles>  (318) 
[H]C([H])=C([H])C1([H])C([H])(C([H])([H])[H])C2([H])OC3(C([H])([H])[H])OOC24C([H])(C([H])([H])C3([H])[H])C([H])(C([H])([H])[H])C([H])([H])C([H])([H])C4([H])C1([H])C([H])([H])[H]

$$$$
110:0:2
     RDKit          3D

 52 55  0  0  1  0  0  0  0  0999 V2000
    3.5019   -0.1595   -3.0951 C   0  0  0  0  0  0  0  0  0  0  0  0
    4.6044   -0.4121   -2.3500 C   0  0  0  0  0  0  0  0  0  0  0  0
    4.8545   -1.5224   -1.3485 C   0  0  2  0  0  0  0  0  0  0  0  0
    3.6558   -2.5133   -1.2377 C   0  0  1  0  0  0  0  0  0  0  0  0
    3.5074   -3.3566   -2.5235 C   0  0  0  0  0  0  0  0  0  0  0  0
    3.8093   -3.3644    0.0357 C   0  0  2  0  0  0  0  0  0  0  0  0
    2.8927   -4.5892    0.1881 C   0  0  0  0  0  0  0  0  0  0  0  0
    3.3488   -5.4526    1.3830 C   0  0  0  0  0  0  0  0  0  0  0  0
    3.5349   -4.6571    2.7012 C   0  0  1  0  0  0  0  0  0  0  0  0
    4.0974   -5.6019    3.7843 C   0  0  0  0  0  0  0  0  0  0  0  0
    4.4134   -3.3913    2.4496 C   0  0  2  0  0  0  0  0  0  0  0  0
    4.8947   -2.6206    3.6909 C   0  0  0  0  0  0  0  0  0  0  0  0
    3.9268   -1.5860    4.2764 C   0  0  0  0  0  0  0  0  0  0  0  0
    3.3999   -0.6056    3.1985 C   0  0  2  0  0  0  0  0  0  0  0  0
    3.0045    0.7404    3.8711 C   0  0  0  0  0  0  0  0  0  0  0  0
    2.1870   -1.0628    2.6271 O   0  0  0  0  0  0  0  0  0  0  0  0
    2.3813   -2.3227    1.7458 O   0  0  0  0  0  0  0  0  0  0  0  0
    3.7368   -2.5027    1.3528 C   0  0  2  0  0  0  0  0  0  0  0  0
    4.2385   -1.0734    1.0729 C   0  0  1  0  0  0  0  0  0  0  0  0
    4.4358   -0.3284    2.2758 O   0  0  0  0  0  0  0  0  0  0  0  0
    5.3654   -0.9662    0.0294 C   0  0  1  0  0  0  0  0  0  0  0  0
    6.7060   -1.5629    0.5131 C   0  0  0  0  0  0  0  0  0  0  0  0
    2.6109   -0.7683   -3.0251 H   0  0  0  0  0  0  0  0  0  0  0  0
    3.4931    0.6748   -3.7642 H   0  0  0  0  0  0  0  0  0  0  0  0
    5.4161    0.2609   -2.4617 H   0  0  0  0  0  0  0  0  0  0  0  0
    5.6915   -2.0845   -1.7719 H   0  0  0  0  0  0  0  0  0  0  0  0
    2.7348   -1.9406   -1.1121 H   0  0  0  0  0  0  0  0  0  0  0  0
    4.2851   -4.1186   -2.5966 H   0  0  0  0  0  0  0  0  0  0  0  0
    3.5048   -2.7848   -3.4476 H   0  0  0  0  0  0  0  0  0  0  0  0
    2.5376   -3.8552   -2.4980 H   0  0  0  0  0  0  0  0  0  0  0  0
    4.8188   -3.7779   -0.0523 H   0  0  0  0  0  0  0  0  0  0  0  0
    1.8610   -4.2906    0.3059 H   0  0  0  0  0  0  0  0  0  0  0  0
    2.9440   -5.2003   -0.7027 H   0  0  0  0  0  0  0  0  0  0  0  0
    2.6308   -6.2647    1.5297 H   0  0  0  0  0  0  0  0  0  0  0  0
    4.2949   -5.9297    1.1221 H   0  0  0  0  0  0  0  0  0  0  0  0
    2.5512   -4.3495    3.0472 H   0  0  0  0  0  0  0  0  0  0  0  0
    5.1335   -5.8658    3.5766 H   0  0  0  0  0  0  0  0  0  0  0  0
    3.5196   -6.5265    3.8275 H   0  0  0  0  0  0  0  0  0  0  0  0
    4.0445   -5.1496    4.7753 H   0  0  0  0  0  0  0  0  0  0  0  0
    5.3476   -3.7759    2.0454 H   0  0  0  0  0  0  0  0  0  0  0  0
    5.2269   -3.2989    4.4806 H   0  0  0  0  0  0  0  0  0  0  0  0
    5.8015   -2.0913    3.4102 H   0  0  0  0  0  0  0  0  0  0  0  0
    3.1033   -2.0592    4.8057 H   0  0  0  0  0  0  0  0  0  0  0  0
    4.4905   -1.0289    5.0215 H   0  0  0  0  0  0  0  0  0  0  0  0
    2.5863    1.4176    3.1205 H   0  0  0  0  0  0  0  0  0  0  0  0
    3.8598    1.2329    4.3267 H   0  0  0  0  0  0  0  0  0  0  0  0
    2.2512    0.5855    4.6379 H   0  0  0  0  0  0  0  0  0  0  0  0
    3.4229   -0.5312    0.6043 H   0  0  0  0  0  0  0  0  0  0  0  0
    5.5669    0.1044   -0.0652 H   0  0  0  0  0  0  0  0  0  0  0  0
    6.6858   -2.6450    0.6388 H   0  0  0  0  0  0  0  0  0  0  0  0
    7.0037   -1.1271    1.4707 H   0  0  0  0  0  0  0  0  0  0  0  0
    7.5120   -1.3486   -0.1830 H   0  0  0  0  0  0  0  0  0  0  0  0
  1  2  2  0
  1 23  1  0
  1 24  1  0
  2  3  1  0
  2 25  1  0
  3 21  1  0
  3  4  1  0
  3 26  1  6
  4  5  1  0
  4  6  1  0
  4 27  1  1
  5 28  1  0
  5 29  1  0
  5 30  1  0
  6 18  1  0
  6  7  1  0
  6 31  1  6
  7  8  1  0
  7 32  1  0
  7 33  1  0
  8  9  1  0
  8 34  1  0
  8 35  1  0
  9 10  1  0
  9 11  1  0
  9 36  1  1
 10 37  1  0
 10 38  1  0
 10 39  1  0
 11 18  1  0
 11 12  1  0
 11 40  1  6
 12 13  1  0
 12 41  1  0
 12 42  1  0
 13 14  1  0
 13 43  1  0
 13 44  1  0
 14 20  1  0
 14 15  1  1
 14 16  1  0
 15 45  1  0
 15 46  1  0
 15 47  1  0
 16 17  1  0
 18 17  1  1
 18 19  1  0
 19 20  1  0
 19 21  1  0
 19 48  1  6
 21 22  1  0
 21 49  1  6
 22 50  1  0
 22 51  1  0
 22 52  1  0
M  END
>  <i_m_ct_stereo_status>  (319) 
1

>  <s_m_source_file>  (319) 
/var/tmp/pbs.5076255.sched01/tmpnpseqx1a/1202b9de7rm.sdf

>  <i_m_source_file_index>  (319) 
30

>  <i_lp_mmshare_version>  (319) 
48012

>  <i_f3d_flags>  (319) 
0

>  <s_epik_input>  (319) 
W0NAQF0xMjNbQ0BASF00W0NASF0oW0NIM10pW0NAQEhdKFtDSF09W0NIMl0pW0NASF0oW0NIM10pW0NAQEhdM09bQ0BAXShbQ0gzXSkoT08yKVtDSDJdW0NIMl1bQ0BIXTFbQ0BIXShbQ0gzXSlbQ0gyXVtDSDJdNA==

>  <s_epik_cmdline>  (319) 
J2VwaWtfcHl0aG9uJywgJy1waHQnLCAnMi4wJywgJy1waCcsICc3LjAnLCAnLXRuJywgJzgnLCAnLW1hJywgJzIwMCcsICctaW1hZScsICc8aW5maWxlLm1hZT4nLCAnLW9tYWUnLCAnPG91dGZpbGUubWFlPic=

>  <r_lp_tautomer_probability>  (319) 
1

>  <r_epik_Ionization_Penalty>  (319) 
2.52592e-14

>  <r_epik_Ionization_Penalty_Charging>  (319) 
0

>  <r_epik_Ionization_Penalty_Neutral>  (319) 
2.52592e-14

>  <r_epik_State_Penalty>  (319) 
-0

>  <r_epik_Charging_Adjusted_Penalty>  (319) 
0

>  <i_epik_Tot_Q>  (319) 
0

>  <i_epik_Tot_abs_Q>  (319) 
0

>  <s_lp_Force_Field>  (319) 
OPLS3e

>  <r_lp_Energy>  (319) 
51.4558

>  <b_lp_Chiralities_Consistent>  (319) 
1

>  <s_lp_Variant>  (319) 
110:0-1

>  <s_i_glide_gridfile>  (319) 
pfpi4k_grid

>  <i_i_glide_lignum>  (319) 
30

>  <i_i_glide_rotatable_bonds>  (319) 
1

>  <r_i_docking_score>  (319) 
-2.32384

>  <r_i_glide_ligand_efficiency>  (319) 
-0.105629

>  <r_i_glide_ligand_efficiency_sa>  (319) 
-0.295977

>  <r_i_glide_ligand_efficiency_ln>  (319) 
-0.568032

>  <r_i_glide_gscore>  (319) 
-2.32384

>  <r_i_glide_lipo>  (319) 
-0.193899

>  <r_i_glide_hbond>  (319) 
0

>  <r_i_glide_metal>  (319) 
-0

>  <r_i_glide_rewards>  (319) 
-1.3265

>  <r_i_glide_evdw>  (319) 
-20.3754

>  <r_i_glide_ecoul>  (319) 
0.124136

>  <r_i_glide_erotb>  (319) 
0.196709

>  <r_i_glide_esite>  (319) 
0

>  <r_i_glide_emodel>  (319) 
-21.5361

>  <r_i_glide_energy>  (319) 
-20.2513

>  <r_i_glide_einternal>  (319) 
3.0193

>  <r_i_glide_intrahb_reward>  (319) 
-0

>  <i_i_glide_confnum>  (319) 
2

>  <i_i_glide_posenum>  (319) 
40

>  <r_i_glide_eff_state_penalty>  (319) 
0

>  <ligand_id>  (319) 
110

>  <original_smiles>  (319) 
C=CC1C(C)C2CCC(C)C3CCC4(C)OOC32C(O4)C1C

>  <smiles>  (319) 
[H]C([H])=C([H])C1([H])C([H])(C([H])([H])[H])C2([H])OC3(C([H])([H])[H])OOC24C([H])(C([H])([H])C3([H])[H])C([H])(C([H])([H])[H])C([H])([H])C([H])([H])C4([H])C1([H])C([H])([H])[H]

$$$$
111:0:0
     RDKit          3D

 77 82  0  0  1  0  0  0  0  0999 V2000
    2.5064   -3.3144   -1.2319 C   0  0  0  0  0  0  0  0  0  0  0  0
    3.8649   -3.1351   -0.5116 C   0  0  0  0  0  0  0  0  0  0  0  0
    3.7259   -1.7829    0.2499 C   0  0  0  0  0  0  0  0  0  0  0  0
    4.0900   -4.4118    0.3541 C   0  0  0  0  0  0  0  0  0  0  0  0
    3.1914   -4.9224    1.2402 C   0  0  0  0  0  0  0  0  0  0  0  0
    2.3478   -4.2247    2.2837 C   0  0  0  0  0  0  0  0  0  0  0  0
    3.0759   -4.1370    3.6974 C   0  0  2  0  0  0  0  0  0  0  0  0
    4.0091   -2.8945    3.7212 C   0  0  0  0  0  0  0  0  0  0  0  0
    3.7056   -1.8745    4.3315 O   0  0  0  0  0  0  0  0  0  0  0  0
    5.2162   -2.9506    2.8949 C   0  0  0  0  0  0  0  0  0  0  0  0
    5.7831   -4.1305    2.5222 C   0  0  0  0  0  0  0  0  0  0  0  0
    6.5069   -4.2688    1.1368 C   0  0  2  0  0  0  0  0  0  0  0  0
    7.9075   -4.9437    1.2739 C   0  0  0  0  0  0  0  0  0  0  0  0
    6.8302   -2.9324    0.3552 C   0  0  0  0  0  0  0  0  0  0  0  0
    6.4559   -2.8348   -1.1492 C   0  0  0  0  0  0  0  0  0  0  0  0
    4.9658   -2.9144   -1.5960 C   0  0  1  0  0  0  0  0  0  0  0  0
    4.8717   -3.8554   -2.6516 O   0  0  0  0  0  0  0  0  0  0  0  0
    5.4809   -5.1131    0.3139 C   0  0  1  0  0  0  0  0  0  0  0  0
    5.4964   -6.5602    0.8685 C   0  0  0  0  0  0  0  0  0  0  0  0
    5.5350   -6.7314    2.4004 C   0  0  0  0  0  0  0  0  0  0  0  0
    5.4212   -5.4529    3.2950 C   0  0  1  0  0  0  0  0  0  0  0  0
    6.5453   -5.6026    4.3649 C   0  0  0  0  0  0  0  0  0  0  0  0
    4.0159   -5.3143    4.0761 C   0  0  2  0  0  0  0  0  0  0  0  0
    3.0835   -6.4789    4.5915 C   0  0  2  0  0  0  0  0  0  0  0  0
    3.9069   -7.4814    5.4361 C   0  0  0  0  0  0  0  0  0  0  0  0
    2.3191   -7.2549    3.5008 C   0  0  0  0  0  0  0  0  0  0  0  0
    0.9818   -7.3783    3.3824 C   0  0  0  0  0  0  0  0  0  0  0  0
    0.0729   -6.7852    4.3688 C   0  0  0  0  0  0  0  0  0  0  0  0
   -1.1292   -6.6605    4.1547 O   0  0  0  0  0  0  0  0  0  0  0  0
    0.6673   -6.3523    5.7231 C   0  0  0  0  0  0  0  0  0  0  0  0
   -0.2916   -5.3876    6.4744 C   0  0  0  0  0  0  0  0  0  0  0  0
    0.7898   -7.6236    6.5979 C   0  0  0  0  0  0  0  0  0  0  0  0
    2.0641   -5.6728    5.4729 C   0  0  2  0  0  0  0  0  0  0  0  0
    1.9677   -4.2528    4.8127 C   0  0  1  0  0  0  0  0  0  0  0  0
    1.9659   -3.3022    5.8659 O   0  0  0  0  0  0  0  0  0  0  0  0
    2.3181   -2.5198   -1.9579 H   0  0  0  0  0  0  0  0  0  0  0  0
    1.6905   -3.2819   -0.5157 H   0  0  0  0  0  0  0  0  0  0  0  0
    2.4105   -4.2486   -1.7629 H   0  0  0  0  0  0  0  0  0  0  0  0
    3.1878   -1.0652   -0.3707 H   0  0  0  0  0  0  0  0  0  0  0  0
    4.6674   -1.2923    0.4630 H   0  0  0  0  0  0  0  0  0  0  0  0
    3.1701   -1.8296    1.1749 H   0  0  0  0  0  0  0  0  0  0  0  0
    3.3713   -5.8943    1.6338 H   0  0  0  0  0  0  0  0  0  0  0  0
    1.9748   -3.2609    1.9584 H   0  0  0  0  0  0  0  0  0  0  0  0
    1.4505   -4.8359    2.3676 H   0  0  0  0  0  0  0  0  0  0  0  0
    5.4176   -2.0136    2.4184 H   0  0  0  0  0  0  0  0  0  0  0  0
    8.3969   -5.0628    0.3035 H   0  0  0  0  0  0  0  0  0  0  0  0
    7.9094   -5.9250    1.7306 H   0  0  0  0  0  0  0  0  0  0  0  0
    8.5649   -4.3397    1.8978 H   0  0  0  0  0  0  0  0  0  0  0  0
    6.5461   -2.0190    0.8459 H   0  0  0  0  0  0  0  0  0  0  0  0
    7.9107   -2.7881    0.3749 H   0  0  0  0  0  0  0  0  0  0  0  0
    6.8234   -1.8735   -1.5022 H   0  0  0  0  0  0  0  0  0  0  0  0
    7.0538   -3.5588   -1.7036 H   0  0  0  0  0  0  0  0  0  0  0  0
    4.7303   -1.9674   -2.0853 H   0  0  0  0  0  0  0  0  0  0  0  0
    4.1786   -4.4714   -2.4502 H   0  0  0  0  0  0  0  0  0  0  0  0
    5.7958   -5.2288   -0.7185 H   0  0  0  0  0  0  0  0  0  0  0  0
    4.6929   -7.1472    0.4336 H   0  0  0  0  0  0  0  0  0  0  0  0
    6.3921   -7.0476    0.4940 H   0  0  0  0  0  0  0  0  0  0  0  0
    4.8426   -7.5006    2.6911 H   0  0  0  0  0  0  0  0  0  0  0  0
    6.4671   -7.2491    2.6295 H   0  0  0  0  0  0  0  0  0  0  0  0
    6.4378   -6.4926    4.9823 H   0  0  0  0  0  0  0  0  0  0  0  0
    6.5950   -4.7371    5.0260 H   0  0  0  0  0  0  0  0  0  0  0  0
    7.5309   -5.6728    3.9097 H   0  0  0  0  0  0  0  0  0  0  0  0
    4.3886   -4.9636    5.0418 H   0  0  0  0  0  0  0  0  0  0  0  0
    4.4023   -7.0029    6.2834 H   0  0  0  0  0  0  0  0  0  0  0  0
    4.6794   -7.9645    4.8428 H   0  0  0  0  0  0  0  0  0  0  0  0
    3.3025   -8.2938    5.8303 H   0  0  0  0  0  0  0  0  0  0  0  0
    2.8979   -7.7733    2.7622 H   0  0  0  0  0  0  0  0  0  0  0  0
    0.5421   -7.9578    2.5781 H   0  0  0  0  0  0  0  0  0  0  0  0
    0.1478   -5.0377    7.4087 H   0  0  0  0  0  0  0  0  0  0  0  0
   -1.2428   -5.8514    6.7296 H   0  0  0  0  0  0  0  0  0  0  0  0
   -0.5514   -4.5127    5.8834 H   0  0  0  0  0  0  0  0  0  0  0  0
    1.4406   -7.4683    7.4625 H   0  0  0  0  0  0  0  0  0  0  0  0
    1.1785   -8.4729    6.0361 H   0  0  0  0  0  0  0  0  0  0  0  0
   -0.1827   -7.9527    6.9692 H   0  0  0  0  0  0  0  0  0  0  0  0
    2.5359   -5.5415    6.4535 H   0  0  0  0  0  0  0  0  0  0  0  0
    0.9962   -4.1128    4.3382 H   0  0  0  0  0  0  0  0  0  0  0  0
    2.8140   -3.3054    6.2913 H   0  0  0  0  0  0  0  0  0  0  0  0
  1  2  1  0
  1 36  1  0
  1 37  1  0
  1 38  1  0
  2 16  1  0
  2  3  1  0
  2  4  1  0
  3 39  1  0
  3 40  1  0
  3 41  1  0
  4 18  1  0
  4  5  2  3
  5  6  1  0
  5 42  1  0
  6  7  1  0
  6 43  1  0
  6 44  1  0
  7 23  1  0
  7 34  1  0
  7  8  1  6
  8  9  2  0
  8 10  1  0
 10 11  2  0
 10 45  1  0
 11 21  1  0
 11 12  1  0
 12 13  1  1
 12 14  1  0
 12 18  1  0
 13 46  1  0
 13 47  1  0
 13 48  1  0
 14 15  1  0
 14 49  1  0
 14 50  1  0
 15 16  1  0
 15 51  1  0
 15 52  1  0
 16 17  1  0
 16 53  1  6
 17 54  1  0
 18 19  1  0
 18 55  1  6
 19 20  1  0
 19 56  1  0
 19 57  1  0
 20 21  1  0
 20 58  1  0
 20 59  1  0
 21 22  1  1
 21 23  1  0
 22 60  1  0
 22 61  1  0
 22 62  1  0
 23 24  1  0
 23 63  1  1
 24 33  1  0
 24 25  1  1
 24 26  1  0
 25 64  1  0
 25 65  1  0
 25 66  1  0
 26 27  2  0
 26 67  1  0
 27 28  1  0
 27 68  1  0
 28 29  2  0
 28 30  1  0
 30 31  1  0
 30 32  1  0
 30 33  1  0
 31 69  1  0
 31 70  1  0
 31 71  1  0
 32 72  1  0
 32 73  1  0
 32 74  1  0
 33 34  1  0
 33 75  1  1
 34 35  1  0
 34 76  1  6
 35 77  1  0
M  END
>  <i_m_ct_stereo_status>  (320) 
1

>  <s_m_source_file>  (320) 
/var/tmp/pbs.5076255.sched01/tmpnpseqx1a/1202b9de7rm.sdf

>  <i_m_source_file_index>  (320) 
31

>  <i_lp_mmshare_version>  (320) 
48012

>  <i_f3d_flags>  (320) 
0

>  <s_epik_input>  (320) 
W0NIMl0xW0NIMl1bQ0BASF0oW09IXSlDKFtDSDNdKShbQ0gzXSkvQyg9W0NIXVxbQ0gyXTIpW0NASF0oW0NIMl1bQ0gyXTMpW0NAXTEoW0NIM10pQyg9W0NIXUM0PU8pW0NAQF0zKFtDSDNdKVtDQEBIXShbQ0BdMjQ1KVtDQEBdNihbQ0gzXSlbQ0BASF0oW0NASF01W09IXSlDKFtDSDNdKShbQ0gzXSlDKD1PKVtDSF09W0NIXTY=

>  <s_epik_cmdline>  (320) 
J2VwaWtfcHl0aG9uJywgJy1waHQnLCAnMi4wJywgJy1waCcsICc3LjAnLCAnLXRuJywgJzgnLCAnLW1hJywgJzIwMCcsICctaW1hZScsICc8aW5maWxlLm1hZT4nLCAnLW9tYWUnLCAnPG91dGZpbGUubWFlPic=

>  <r_lp_tautomer_probability>  (320) 
1

>  <r_epik_Ionization_Penalty>  (320) 
7.25503e-07

>  <r_epik_Ionization_Penalty_Charging>  (320) 
0

>  <r_epik_Ionization_Penalty_Neutral>  (320) 
7.25503e-07

>  <r_epik_State_Penalty>  (320) 
-0

>  <r_epik_Charging_Adjusted_Penalty>  (320) 
0

>  <i_epik_Tot_Q>  (320) 
0

>  <i_epik_Tot_abs_Q>  (320) 
0

>  <s_lp_Force_Field>  (320) 
OPLS3e

>  <r_lp_Energy>  (320) 
160.494

>  <b_lp_Chiralities_Consistent>  (320) 
1

>  <s_lp_Variant>  (320) 
111:0-1

>  <s_i_glide_gridfile>  (320) 
pfpi4k_grid

>  <i_i_glide_lignum>  (320) 
31

>  <i_i_glide_rotatable_bonds>  (320) 
2

>  <r_i_docking_score>  (320) 
-3.27357

>  <r_i_glide_ligand_efficiency>  (320) 
-0.0935306

>  <r_i_glide_ligand_efficiency_sa>  (320) 
-0.305945

>  <r_i_glide_ligand_efficiency_ln>  (320) 
-0.718622

>  <r_i_glide_gscore>  (320) 
-3.27357

>  <r_i_glide_lipo>  (320) 
-0.721482

>  <r_i_glide_hbond>  (320) 
-0.345838

>  <r_i_glide_metal>  (320) 
-0

>  <r_i_glide_rewards>  (320) 
-0.145481

>  <r_i_glide_evdw>  (320) 
-28.7987

>  <r_i_glide_ecoul>  (320) 
-3.95424

>  <r_i_glide_erotb>  (320) 
0

>  <r_i_glide_esite>  (320) 
-0.0276987

>  <r_i_glide_emodel>  (320) 
-38.5309

>  <r_i_glide_energy>  (320) 
-32.753

>  <r_i_glide_einternal>  (320) 
1.43688

>  <r_i_glide_intrahb_reward>  (320) 
-0

>  <i_i_glide_confnum>  (320) 
2

>  <i_i_glide_posenum>  (320) 
8

>  <r_i_glide_eff_state_penalty>  (320) 
0

>  <ligand_id>  (320) 
111

>  <original_smiles>  (320) 
CC1(C)C2=CCC34C(=O)C=C5C(C)(CCC1O)C2CCC5(C)C3C1(C)C=CC(=O)C(C)(C)C1C4O

>  <smiles>  (320) 
[H]OC1([H])C([H])([H])C([H])([H])C2(C([H])([H])[H])C3=C([H])C(=O)C45C([H])([H])C([H])=C(C2([H])C([H])([H])C([H])([H])C3(C([H])([H])[H])C4([H])C2(C([H])([H])[H])C([H])=C([H])C(=O)C(C([H])([H])[H])(C([H])([H])[H])C2([H])C5([H])O[H])C1(C([H])([H])[H])C([H])([H])[H]

$$$$
111:0:1
     RDKit          3D

 77 82  0  0  1  0  0  0  0  0999 V2000
    0.4109    0.3337    3.8472 C   0  0  0  0  0  0  0  0  0  0  0  0
    1.1019   -0.8788    4.5319 C   0  0  0  0  0  0  0  0  0  0  0  0
    0.1023   -2.0487    4.3610 C   0  0  0  0  0  0  0  0  0  0  0  0
    2.4954   -1.0336    3.8646 C   0  0  0  0  0  0  0  0  0  0  0  0
    2.6902   -1.0946    2.5387 C   0  0  0  0  0  0  0  0  0  0  0  0
    2.0119   -1.9349    1.4987 C   0  0  0  0  0  0  0  0  0  0  0  0
    2.5822   -3.4130    1.2391 C   0  0  2  0  0  0  0  0  0  0  0  0
    2.0813   -4.4763    2.2902 C   0  0  0  0  0  0  0  0  0  0  0  0
    1.4422   -5.4901    2.0085 O   0  0  0  0  0  0  0  0  0  0  0  0
    2.4582   -4.2162    3.6628 C   0  0  0  0  0  0  0  0  0  0  0  0
    3.6110   -3.5731    3.9515 C   0  0  0  0  0  0  0  0  0  0  0  0
    3.7695   -2.7181    5.2691 C   0  0  2  0  0  0  0  0  0  0  0  0
    5.0645   -3.1153    6.0109 C   0  0  0  0  0  0  0  0  0  0  0  0
    2.6259   -2.8919    6.3348 C   0  0  0  0  0  0  0  0  0  0  0  0
    1.9993   -1.6265    6.9523 C   0  0  0  0  0  0  0  0  0  0  0  0
    1.2144   -0.6079    6.0640 C   0  0  1  0  0  0  0  0  0  0  0  0
    1.7166    0.7008    6.3265 O   0  0  0  0  0  0  0  0  0  0  0  0
    3.7693   -1.2409    4.7358 C   0  0  1  0  0  0  0  0  0  0  0  0
    5.0693   -0.9705    3.9716 C   0  0  0  0  0  0  0  0  0  0  0  0
    5.4774   -2.0757    2.9525 C   0  0  0  0  0  0  0  0  0  0  0  0
    4.6956   -3.4122    2.8011 C   0  0  1  0  0  0  0  0  0  0  0  0
    5.6390   -4.6325    2.9966 C   0  0  0  0  0  0  0  0  0  0  0  0
    4.1013   -3.5391    1.3337 C   0  0  2  0  0  0  0  0  0  0  0  0
    4.7302   -2.9800   -0.0020 C   0  0  2  0  0  0  0  0  0  0  0  0
    6.1820   -3.4865   -0.1715 C   0  0  0  0  0  0  0  0  0  0  0  0
    4.7726   -1.4608   -0.1931 C   0  0  0  0  0  0  0  0  0  0  0  0
    4.2122   -0.7737   -1.2079 C   0  0  0  0  0  0  0  0  0  0  0  0
    3.5013   -1.3896   -2.2840 C   0  0  0  0  0  0  0  0  0  0  0  0
    2.8945   -0.7080   -3.1191 O   0  0  0  0  0  0  0  0  0  0  0  0
    3.6839   -2.8854   -2.4832 C   0  0  0  0  0  0  0  0  0  0  0  0
    2.5603   -3.3768   -3.4178 C   0  0  0  0  0  0  0  0  0  0  0  0
    5.0051   -3.0090   -3.2615 C   0  0  0  0  0  0  0  0  0  0  0  0
    3.7535   -3.6011   -1.0674 C   0  0  2  0  0  0  0  0  0  0  0  0
    2.3923   -3.7445   -0.2981 C   0  0  1  0  0  0  0  0  0  0  0  0
    1.8118   -4.9916   -0.5922 O   0  0  0  0  0  0  0  0  0  0  0  0
   -0.5147    0.6036    4.3611 H   0  0  0  0  0  0  0  0  0  0  0  0
    0.1516    0.1207    2.8107 H   0  0  0  0  0  0  0  0  0  0  0  0
    1.0451    1.2185    3.8436 H   0  0  0  0  0  0  0  0  0  0  0  0
   -0.9156   -1.6861    4.5181 H   0  0  0  0  0  0  0  0  0  0  0  0
    0.2094   -2.8412    5.0975 H   0  0  0  0  0  0  0  0  0  0  0  0
    0.1123   -2.5092    3.3850 H   0  0  0  0  0  0  0  0  0  0  0  0
    3.6586   -0.9493    2.0977 H   0  0  0  0  0  0  0  0  0  0  0  0
    0.9469   -1.8392    1.5978 H   0  0  0  0  0  0  0  0  0  0  0  0
    2.2872   -1.3495    0.6199 H   0  0  0  0  0  0  0  0  0  0  0  0
    1.6526   -4.3492    4.3641 H   0  0  0  0  0  0  0  0  0  0  0  0
    5.1735   -2.5255    6.9285 H   0  0  0  0  0  0  0  0  0  0  0  0
    5.9746   -2.9979    5.4329 H   0  0  0  0  0  0  0  0  0  0  0  0
    5.0129   -4.1667    6.3065 H   0  0  0  0  0  0  0  0  0  0  0  0
    1.8405   -3.5805    6.0984 H   0  0  0  0  0  0  0  0  0  0  0  0
    3.0496   -3.4387    7.1746 H   0  0  0  0  0  0  0  0  0  0  0  0
    1.2995   -1.9678    7.7125 H   0  0  0  0  0  0  0  0  0  0  0  0
    2.7801   -1.1028    7.5153 H   0  0  0  0  0  0  0  0  0  0  0  0
    0.1971   -0.5680    6.4455 H   0  0  0  0  0  0  0  0  0  0  0  0
    2.5982    0.7533    5.9533 H   0  0  0  0  0  0  0  0  0  0  0  0
    3.7787   -0.5283    5.5629 H   0  0  0  0  0  0  0  0  0  0  0  0
    5.0307   -0.0184    3.4935 H   0  0  0  0  0  0  0  0  0  0  0  0
    5.8568   -0.8790    4.7105 H   0  0  0  0  0  0  0  0  0  0  0  0
    5.8731   -1.6574    2.0540 H   0  0  0  0  0  0  0  0  0  0  0  0
    6.4204   -2.4589    3.2917 H   0  0  0  0  0  0  0  0  0  0  0  0
    6.4597   -4.6419    2.2837 H   0  0  0  0  0  0  0  0  0  0  0  0
    5.1017   -5.5779    2.8891 H   0  0  0  0  0  0  0  0  0  0  0  0
    6.0724   -4.6484    3.9812 H   0  0  0  0  0  0  0  0  0  0  0  0
    4.2395   -4.6046    1.1273 H   0  0  0  0  0  0  0  0  0  0  0  0
    6.2245   -4.5769   -0.1623 H   0  0  0  0  0  0  0  0  0  0  0  0
    6.8235   -3.1146    0.6258 H   0  0  0  0  0  0  0  0  0  0  0  0
    6.6430   -3.1454   -1.0976 H   0  0  0  0  0  0  0  0  0  0  0  0
    5.2639   -0.8121    0.4951 H   0  0  0  0  0  0  0  0  0  0  0  0
    4.2503    0.2815   -1.2350 H   0  0  0  0  0  0  0  0  0  0  0  0
    2.7268   -4.4304   -3.5626 H   0  0  0  0  0  0  0  0  0  0  0  0
    2.5564   -2.8324   -4.3719 H   0  0  0  0  0  0  0  0  0  0  0  0
    1.5717   -3.2667   -3.0036 H   0  0  0  0  0  0  0  0  0  0  0  0
    5.3916   -4.0260   -3.2368 H   0  0  0  0  0  0  0  0  0  0  0  0
    5.7693   -2.3406   -2.8852 H   0  0  0  0  0  0  0  0  0  0  0  0
    4.8408   -2.7312   -4.3112 H   0  0  0  0  0  0  0  0  0  0  0  0
    4.1333   -4.6131   -1.2499 H   0  0  0  0  0  0  0  0  0  0  0  0
    1.6861   -3.0450   -0.7482 H   0  0  0  0  0  0  0  0  0  0  0  0
    2.2090   -5.2692   -1.4161 H   0  0  0  0  0  0  0  0  0  0  0  0
  1  2  1  0
  1 36  1  0
  1 37  1  0
  1 38  1  0
  2 16  1  0
  2  3  1  0
  2  4  1  0
  3 39  1  0
  3 40  1  0
  3 41  1  0
  4 18  1  0
  4  5  2  3
  5  6  1  0
  5 42  1  0
  6  7  1  0
  6 43  1  0
  6 44  1  0
  7 23  1  0
  7 34  1  0
  7  8  1  1
  8  9  2  0
  8 10  1  0
 10 11  2  0
 10 45  1  0
 11 21  1  0
 11 12  1  0
 12 13  1  1
 12 14  1  0
 12 18  1  0
 13 46  1  0
 13 47  1  0
 13 48  1  0
 14 15  1  0
 14 49  1  0
 14 50  1  0
 15 16  1  0
 15 51  1  0
 15 52  1  0
 16 17  1  0
 16 53  1  1
 17 54  1  0
 18 19  1  0
 18 55  1  1
 19 20  1  0
 19 56  1  0
 19 57  1  0
 20 21  1  0
 20 58  1  0
 20 59  1  0
 21 22  1  1
 21 23  1  0
 22 60  1  0
 22 61  1  0
 22 62  1  0
 23 24  1  0
 23 63  1  6
 24 33  1  0
 24 25  1  6
 24 26  1  0
 25 64  1  0
 25 65  1  0
 25 66  1  0
 26 27  2  0
 26 67  1  0
 27 28  1  0
 27 68  1  0
 28 29  2  0
 28 30  1  0
 30 31  1  0
 30 32  1  0
 30 33  1  0
 31 69  1  0
 31 70  1  0
 31 71  1  0
 32 72  1  0
 32 73  1  0
 32 74  1  0
 33 34  1  0
 33 75  1  6
 34 35  1  0
 34 76  1  6
 35 77  1  0
M  END
>  <i_m_ct_stereo_status>  (321) 
1

>  <s_m_source_file>  (321) 
/var/tmp/pbs.5076255.sched01/tmpnpseqx1a/1202b9de7rm.sdf

>  <i_m_source_file_index>  (321) 
31

>  <i_lp_mmshare_version>  (321) 
48012

>  <i_f3d_flags>  (321) 
0

>  <s_epik_input>  (321) 
W0NIMl0xW0NIMl1bQ0BASF0oW09IXSlDKFtDSDNdKShbQ0gzXSkvQyg9W0NIXVxbQ0gyXTIpW0NASF0oW0NIMl1bQ0gyXTMpW0NAXTEoW0NIM10pQyg9W0NIXUM0PU8pW0NAQF0zKFtDSDNdKVtDQEBIXShbQ0BdMjQ1KVtDQEBdNihbQ0gzXSlbQ0BASF0oW0NASF01W09IXSlDKFtDSDNdKShbQ0gzXSlDKD1PKVtDSF09W0NIXTY=

>  <s_epik_cmdline>  (321) 
J2VwaWtfcHl0aG9uJywgJy1waHQnLCAnMi4wJywgJy1waCcsICc3LjAnLCAnLXRuJywgJzgnLCAnLW1hJywgJzIwMCcsICctaW1hZScsICc8aW5maWxlLm1hZT4nLCAnLW9tYWUnLCAnPG91dGZpbGUubWFlPic=

>  <r_lp_tautomer_probability>  (321) 
1

>  <r_epik_Ionization_Penalty>  (321) 
7.25503e-07

>  <r_epik_Ionization_Penalty_Charging>  (321) 
0

>  <r_epik_Ionization_Penalty_Neutral>  (321) 
7.25503e-07

>  <r_epik_State_Penalty>  (321) 
-0

>  <r_epik_Charging_Adjusted_Penalty>  (321) 
0

>  <i_epik_Tot_Q>  (321) 
0

>  <i_epik_Tot_abs_Q>  (321) 
0

>  <s_lp_Force_Field>  (321) 
OPLS3e

>  <r_lp_Energy>  (321) 
160.494

>  <b_lp_Chiralities_Consistent>  (321) 
1

>  <s_lp_Variant>  (321) 
111:0-1

>  <s_i_glide_gridfile>  (321) 
pfpi4k_grid

>  <i_i_glide_lignum>  (321) 
31

>  <i_i_glide_rotatable_bonds>  (321) 
2

>  <r_i_docking_score>  (321) 
-2.68512

>  <r_i_glide_ligand_efficiency>  (321) 
-0.0767178

>  <r_i_glide_ligand_efficiency_sa>  (321) 
-0.250949

>  <r_i_glide_ligand_efficiency_ln>  (321) 
-0.589444

>  <r_i_glide_gscore>  (321) 
-2.68512

>  <r_i_glide_lipo>  (321) 
-0.71121

>  <r_i_glide_hbond>  (321) 
-0.0609824

>  <r_i_glide_metal>  (321) 
-0

>  <r_i_glide_rewards>  (321) 
-0.145481

>  <r_i_glide_evdw>  (321) 
-5.68394

>  <r_i_glide_ecoul>  (321) 
-9.31357

>  <r_i_glide_erotb>  (321) 
0

>  <r_i_glide_esite>  (321) 
-0.0862165

>  <r_i_glide_emodel>  (321) 
-16.1515

>  <r_i_glide_energy>  (321) 
-14.9975

>  <r_i_glide_einternal>  (321) 
1.2177

>  <r_i_glide_intrahb_reward>  (321) 
-0

>  <i_i_glide_confnum>  (321) 
1

>  <i_i_glide_posenum>  (321) 
1

>  <r_i_glide_eff_state_penalty>  (321) 
0

>  <ligand_id>  (321) 
111

>  <original_smiles>  (321) 
CC1(C)C2=CCC34C(=O)C=C5C(C)(CCC1O)C2CCC5(C)C3C1(C)C=CC(=O)C(C)(C)C1C4O

>  <smiles>  (321) 
[H]OC1([H])C([H])([H])C([H])([H])C2(C([H])([H])[H])C3=C([H])C(=O)C45C([H])([H])C([H])=C(C2([H])C([H])([H])C([H])([H])C3(C([H])([H])[H])C4([H])C2(C([H])([H])[H])C([H])=C([H])C(=O)C(C([H])([H])[H])(C([H])([H])[H])C2([H])C5([H])O[H])C1(C([H])([H])[H])C([H])([H])[H]

$$$$
111:1:0
     RDKit          3D

 77 82  0  0  1  0  0  0  0  0999 V2000
    0.6448   -6.9260    6.7707 C   0  0  0  0  0  0  0  0  0  0  0  0
    0.2993   -7.1414    5.2718 C   0  0  0  0  0  0  0  0  0  0  0  0
   -0.9476   -6.2712    5.0032 C   0  0  0  0  0  0  0  0  0  0  0  0
    1.5148   -6.7129    4.3983 C   0  0  0  0  0  0  0  0  0  0  0  0
    1.4608   -5.5495    3.6702 C   0  0  0  0  0  0  0  0  0  0  0  0
    2.5098   -4.7576    2.8836 C   0  0  0  0  0  0  0  0  0  0  0  0
    2.8309   -5.0350    1.3582 C   0  0  2  0  0  0  0  0  0  0  0  0
    1.8849   -6.1063    0.7483 C   0  0  0  0  0  0  0  0  0  0  0  0
    1.0052   -5.8570   -0.0697 O   0  0  0  0  0  0  0  0  0  0  0  0
    1.9705   -7.4395    1.3036 C   0  0  0  0  0  0  0  0  0  0  0  0
    3.0234   -7.8055    2.0621 C   0  0  0  0  0  0  0  0  0  0  0  0
    2.7431   -8.7272    3.2677 C   0  0  2  0  0  0  0  0  0  0  0  0
    3.8210   -9.8360    3.4566 C   0  0  0  0  0  0  0  0  0  0  0  0
    1.4290   -9.5974    3.1485 C   0  0  0  0  0  0  0  0  0  0  0  0
    0.0288   -9.0540    3.5372 C   0  0  0  0  0  0  0  0  0  0  0  0
   -0.1436   -8.6116    4.9984 C   0  0  1  0  0  0  0  0  0  0  0  0
    0.4262   -9.5599    5.8734 O   0  0  0  0  0  0  0  0  0  0  0  0
    2.7175   -7.7118    4.4601 C   0  0  1  0  0  0  0  0  0  0  0  0
    4.0852   -7.0088    4.6660 C   0  0  0  0  0  0  0  0  0  0  0  0
    5.0247   -6.9391    3.4364 C   0  0  0  0  0  0  0  0  0  0  0  0
    4.3912   -7.0479    2.0207 C   0  0  1  0  0  0  0  0  0  0  0  0
    5.3313   -7.9496    1.1715 C   0  0  0  0  0  0  0  0  0  0  0  0
    4.2409   -5.6441    1.2690 C   0  0  2  0  0  0  0  0  0  0  0  0
    5.2641   -4.4278    1.2718 C   0  0  2  0  0  0  0  0  0  0  0  0
    6.6442   -4.9070    0.7681 C   0  0  0  0  0  0  0  0  0  0  0  0
    5.4740   -3.6703    2.5994 C   0  0  0  0  0  0  0  0  0  0  0  0
    5.2868   -2.3605    2.8371 C   0  0  0  0  0  0  0  0  0  0  0  0
    4.8724   -1.4442    1.7781 C   0  0  0  0  0  0  0  0  0  0  0  0
    4.5059   -0.2959    2.0151 O   0  0  0  0  0  0  0  0  0  0  0  0
    4.9804   -1.9491    0.3291 C   0  0  0  0  0  0  0  0  0  0  0  0
    4.1100   -1.0712   -0.6006 C   0  0  0  0  0  0  0  0  0  0  0  0
    6.4427   -1.7282   -0.1149 C   0  0  0  0  0  0  0  0  0  0  0  0
    4.5451   -3.4625    0.2714 C   0  0  2  0  0  0  0  0  0  0  0  0
    3.0211   -3.6761    0.5654 C   0  0  1  0  0  0  0  0  0  0  0  0
    2.3092   -3.5199   -0.6513 O   0  0  0  0  0  0  0  0  0  0  0  0
   -0.1840   -7.2117    7.4206 H   0  0  0  0  0  0  0  0  0  0  0  0
    0.8696   -5.8786    6.9698 H   0  0  0  0  0  0  0  0  0  0  0  0
    1.5104   -7.5000    7.0991 H   0  0  0  0  0  0  0  0  0  0  0  0
   -1.8187   -6.5850    5.5625 H   0  0  0  0  0  0  0  0  0  0  0  0
   -1.2357   -6.2733    3.9492 H   0  0  0  0  0  0  0  0  0  0  0  0
   -0.7686   -5.2401    5.3277 H   0  0  0  0  0  0  0  0  0  0  0  0
    0.5597   -4.9613    3.6716 H   0  0  0  0  0  0  0  0  0  0  0  0
    2.1577   -3.7323    2.9852 H   0  0  0  0  0  0  0  0  0  0  0  0
    3.4093   -4.7568    3.4784 H   0  0  0  0  0  0  0  0  0  0  0  0
    1.0274   -7.9492    1.3336 H   0  0  0  0  0  0  0  0  0  0  0  0
    3.5864  -10.4830    4.3040 H   0  0  0  0  0  0  0  0  0  0  0  0
    4.8227   -9.4919    3.6658 H   0  0  0  0  0  0  0  0  0  0  0  0
    3.8837  -10.4687    2.5705 H   0  0  0  0  0  0  0  0  0  0  0  0
    1.3721   -9.9917    2.1338 H   0  0  0  0  0  0  0  0  0  0  0  0
    1.5434  -10.5015    3.7446 H   0  0  0  0  0  0  0  0  0  0  0  0
   -0.3245   -8.2690    2.8749 H   0  0  0  0  0  0  0  0  0  0  0  0
   -0.6677   -9.8793    3.3721 H   0  0  0  0  0  0  0  0  0  0  0  0
   -1.2065   -8.6866    5.2230 H   0  0  0  0  0  0  0  0  0  0  0  0
   -0.0200  -10.3881    5.7410 H   0  0  0  0  0  0  0  0  0  0  0  0
    2.5865   -8.3084    5.3603 H   0  0  0  0  0  0  0  0  0  0  0  0
    3.9508   -6.0242    5.1125 H   0  0  0  0  0  0  0  0  0  0  0  0
    4.6223   -7.5513    5.4447 H   0  0  0  0  0  0  0  0  0  0  0  0
    5.6960   -6.1113    3.5149 H   0  0  0  0  0  0  0  0  0  0  0  0
    5.7720   -7.7198    3.5473 H   0  0  0  0  0  0  0  0  0  0  0  0
    6.3472   -7.5671    1.0959 H   0  0  0  0  0  0  0  0  0  0  0  0
    4.9502   -8.0918    0.1583 H   0  0  0  0  0  0  0  0  0  0  0  0
    5.4321   -8.9518    1.5809 H   0  0  0  0  0  0  0  0  0  0  0  0
    4.3068   -5.9504    0.2202 H   0  0  0  0  0  0  0  0  0  0  0  0
    6.5579   -5.4454   -0.1741 H   0  0  0  0  0  0  0  0  0  0  0  0
    7.1076   -5.5741    1.4929 H   0  0  0  0  0  0  0  0  0  0  0  0
    7.3643   -4.1076    0.6214 H   0  0  0  0  0  0  0  0  0  0  0  0
    5.8752   -4.2116    3.4276 H   0  0  0  0  0  0  0  0  0  0  0  0
    5.5082   -1.9395    3.8107 H   0  0  0  0  0  0  0  0  0  0  0  0
    4.1051   -1.4465   -1.6248 H   0  0  0  0  0  0  0  0  0  0  0  0
    4.4721   -0.0440   -0.6272 H   0  0  0  0  0  0  0  0  0  0  0  0
    3.0779   -1.0128   -0.2555 H   0  0  0  0  0  0  0  0  0  0  0  0
    6.6818   -2.2796   -1.0265 H   0  0  0  0  0  0  0  0  0  0  0  0
    7.1670   -1.9971    0.6549 H   0  0  0  0  0  0  0  0  0  0  0  0
    6.6077   -0.6678   -0.3049 H   0  0  0  0  0  0  0  0  0  0  0  0
    4.7539   -3.8246   -0.7409 H   0  0  0  0  0  0  0  0  0  0  0  0
    2.6474   -2.8555    1.1774 H   0  0  0  0  0  0  0  0  0  0  0  0
    2.1436   -2.5922   -0.8023 H   0  0  0  0  0  0  0  0  0  0  0  0
  1  2  1  0
  1 36  1  0
  1 37  1  0
  1 38  1  0
  2 16  1  0
  2  3  1  0
  2  4  1  0
  3 39  1  0
  3 40  1  0
  3 41  1  0
  4 18  1  0
  4  5  2  3
  5  6  1  0
  5 42  1  0
  6  7  1  0
  6 43  1  0
  6 44  1  0
  7 23  1  0
  7 34  1  0
  7  8  1  6
  8  9  2  0
  8 10  1  0
 10 11  2  0
 10 45  1  0
 11 21  1  0
 11 12  1  0
 12 13  1  1
 12 14  1  0
 12 18  1  0
 13 46  1  0
 13 47  1  0
 13 48  1  0
 14 15  1  0
 14 49  1  0
 14 50  1  0
 15 16  1  0
 15 51  1  0
 15 52  1  0
 16 17  1  0
 16 53  1  1
 17 54  1  0
 18 19  1  0
 18 55  1  1
 19 20  1  0
 19 56  1  0
 19 57  1  0
 20 21  1  0
 20 58  1  0
 20 59  1  0
 21 22  1  6
 21 23  1  0
 22 60  1  0
 22 61  1  0
 22 62  1  0
 23 24  1  0
 23 63  1  6
 24 33  1  0
 24 25  1  6
 24 26  1  0
 25 64  1  0
 25 65  1  0
 25 66  1  0
 26 27  2  0
 26 67  1  0
 27 28  1  0
 27 68  1  0
 28 29  2  0
 28 30  1  0
 30 31  1  0
 30 32  1  0
 30 33  1  0
 31 69  1  0
 31 70  1  0
 31 71  1  0
 32 72  1  0
 32 73  1  0
 32 74  1  0
 33 34  1  0
 33 75  1  6
 34 35  1  0
 34 76  1  1
 35 77  1  0
M  END
>  <i_m_ct_stereo_status>  (322) 
1

>  <s_m_source_file>  (322) 
/var/tmp/pbs.5076255.sched01/tmpnpseqx1a/1202b9de7rm.sdf

>  <i_m_source_file_index>  (322) 
32

>  <i_lp_mmshare_version>  (322) 
48012

>  <i_f3d_flags>  (322) 
0

>  <s_epik_input>  (322) 
W0NIMl0xW0NIMl1bQ0BASF0oW09IXSlDKFtDSDNdKShbQ0gzXSkvQyg9W0NIXVxbQ0gyXTIpW0NASF0oW0NIMl1bQ0gyXTMpW0NAXTEoW0NIM10pQyg9W0NIXUM0PU8pW0NAQF0zKFtDSDNdKVtDQEBIXShbQ0BdMjQ1KVtDQEBdNihbQ0gzXSlbQ0BASF0oW0NASF01W09IXSlDKFtDSDNdKShbQ0gzXSlDKD1PKVtDSF09W0NIXTY=

>  <s_epik_cmdline>  (322) 
J2VwaWtfcHl0aG9uJywgJy1waHQnLCAnMi4wJywgJy1waCcsICc3LjAnLCAnLXRuJywgJzgnLCAnLW1hJywgJzIwMCcsICctaW1hZScsICc8aW5maWxlLm1hZT4nLCAnLW9tYWUnLCAnPG91dGZpbGUubWFlPic=

>  <r_lp_tautomer_probability>  (322) 
1

>  <r_epik_Ionization_Penalty>  (322) 
7.25503e-07

>  <r_epik_Ionization_Penalty_Charging>  (322) 
0

>  <r_epik_Ionization_Penalty_Neutral>  (322) 
7.25503e-07

>  <r_epik_State_Penalty>  (322) 
-0

>  <r_epik_Charging_Adjusted_Penalty>  (322) 
0

>  <i_epik_Tot_Q>  (322) 
0

>  <i_epik_Tot_abs_Q>  (322) 
0

>  <s_lp_Force_Field>  (322) 
OPLS3e

>  <r_lp_Energy>  (322) 
133.067

>  <b_lp_Chiralities_Consistent>  (322) 
1

>  <s_lp_Variant>  (322) 
111:0-2

>  <s_i_glide_gridfile>  (322) 
pfpi4k_grid

>  <i_i_glide_lignum>  (322) 
32

>  <i_i_glide_rotatable_bonds>  (322) 
2

>  <r_i_docking_score>  (322) 
-3.61642

>  <r_i_glide_ligand_efficiency>  (322) 
-0.103326

>  <r_i_glide_ligand_efficiency_sa>  (322) 
-0.337987

>  <r_i_glide_ligand_efficiency_ln>  (322) 
-0.793884

>  <r_i_glide_gscore>  (322) 
-3.61642

>  <r_i_glide_lipo>  (322) 
-0.44977

>  <r_i_glide_hbond>  (322) 
-0.480466

>  <r_i_glide_metal>  (322) 
-0

>  <r_i_glide_rewards>  (322) 
-0.234338

>  <r_i_glide_evdw>  (322) 
-29.9723

>  <r_i_glide_ecoul>  (322) 
-6.00248

>  <r_i_glide_erotb>  (322) 
0

>  <r_i_glide_esite>  (322) 
-0.0528568

>  <r_i_glide_emodel>  (322) 
-43.4777

>  <r_i_glide_energy>  (322) 
-35.9747

>  <r_i_glide_einternal>  (322) 
1.11178

>  <r_i_glide_intrahb_reward>  (322) 
-0

>  <i_i_glide_confnum>  (322) 
2

>  <i_i_glide_posenum>  (322) 
26

>  <r_i_glide_eff_state_penalty>  (322) 
0

>  <ligand_id>  (322) 
111

>  <original_smiles>  (322) 
CC1(C)C2=CCC34C(=O)C=C5C(C)(CCC1O)C2CCC5(C)C3C1(C)C=CC(=O)C(C)(C)C1C4O

>  <smiles>  (322) 
[H]OC1([H])C([H])([H])C([H])([H])C2(C([H])([H])[H])C3=C([H])C(=O)C45C([H])([H])C([H])=C(C2([H])C([H])([H])C([H])([H])C3(C([H])([H])[H])C4([H])C2(C([H])([H])[H])C([H])=C([H])C(=O)C(C([H])([H])[H])(C([H])([H])[H])C2([H])C5([H])O[H])C1(C([H])([H])[H])C([H])([H])[H]

$$$$
111:1:1
     RDKit          3D

 77 82  0  0  1  0  0  0  0  0999 V2000
    0.7351   -8.1377    6.5847 C   0  0  0  0  0  0  0  0  0  0  0  0
    0.5715   -8.1507    5.0435 C   0  0  0  0  0  0  0  0  0  0  0  0
   -0.8312   -7.5296    4.7935 C   0  0  0  0  0  0  0  0  0  0  0  0
    1.7271   -7.3456    4.3893 C   0  0  0  0  0  0  0  0  0  0  0  0
    1.4800   -6.1141    3.8425 C   0  0  0  0  0  0  0  0  0  0  0  0
    2.3976   -5.0040    3.3088 C   0  0  0  0  0  0  0  0  0  0  0  0
    2.9013   -4.9507    1.8079 C   0  0  2  0  0  0  0  0  0  0  0  0
    2.2444   -6.0590    0.9409 C   0  0  0  0  0  0  0  0  0  0  0  0
    1.3639   -5.8386    0.1044 O   0  0  0  0  0  0  0  0  0  0  0  0
    2.5831   -7.4210    1.2996 C   0  0  0  0  0  0  0  0  0  0  0  0
    3.6244   -7.7017    2.1105 C   0  0  0  0  0  0  0  0  0  0  0  0
    3.4510   -8.8556    3.1185 C   0  0  2  0  0  0  0  0  0  0  0  0
    4.7226   -9.7431    3.2568 C   0  0  0  0  0  0  0  0  0  0  0  0
    2.3732   -9.9348    2.7142 C   0  0  0  0  0  0  0  0  0  0  0  0
    0.8672   -9.7524    3.0137 C   0  0  0  0  0  0  0  0  0  0  0  0
    0.4906   -9.6028    4.4930 C   0  0  1  0  0  0  0  0  0  0  0  0
    1.1925  -10.5737    5.2550 O   0  0  0  0  0  0  0  0  0  0  0  0
    3.1101   -8.0788    4.4367 C   0  0  1  0  0  0  0  0  0  0  0  0
    4.2703   -7.1666    4.9138 C   0  0  0  0  0  0  0  0  0  0  0  0
    5.2718   -6.7058    3.8256 C   0  0  0  0  0  0  0  0  0  0  0  0
    4.7962   -6.6837    2.3487 C   0  0  1  0  0  0  0  0  0  0  0  0
    5.9753   -7.2225    1.5079 C   0  0  0  0  0  0  0  0  0  0  0  0
    4.4033   -5.2406    1.7919 C   0  0  2  0  0  0  0  0  0  0  0  0
    5.1366   -3.8700    2.0849 C   0  0  2  0  0  0  0  0  0  0  0  0
    6.6101   -3.9861    1.6326 C   0  0  0  0  0  0  0  0  0  0  0  0
    5.0974   -3.3177    3.5321 C   0  0  0  0  0  0  0  0  0  0  0  0
    4.6106   -2.1317    3.9417 C   0  0  0  0  0  0  0  0  0  0  0  0
    4.0819   -1.1539    2.9976 C   0  0  0  0  0  0  0  0  0  0  0  0
    3.4405   -0.1693    3.3594 O   0  0  0  0  0  0  0  0  0  0  0  0
    4.4056   -1.3692    1.5073 C   0  0  0  0  0  0  0  0  0  0  0  0
    3.4369   -0.5395    0.6384 C   0  0  0  0  0  0  0  0  0  0  0  0
    5.8136   -0.7894    1.2455 C   0  0  0  0  0  0  0  0  0  0  0  0
    4.3145   -2.9048    1.1746 C   0  0  2  0  0  0  0  0  0  0  0  0
    2.8607   -3.4716    1.2352 C   0  0  1  0  0  0  0  0  0  0  0  0
    2.2777   -3.2902   -0.0480 O   0  0  0  0  0  0  0  0  0  0  0  0
   -0.0686   -8.6868    7.0771 H   0  0  0  0  0  0  0  0  0  0  0  0
    0.7103   -7.1179    6.9661 H   0  0  0  0  0  0  0  0  0  0  0  0
    1.6718   -8.5788    6.9200 H   0  0  0  0  0  0  0  0  0  0  0  0
   -1.6069   -8.1519    5.2415 H   0  0  0  0  0  0  0  0  0  0  0  0
   -1.0762   -7.4541    3.7313 H   0  0  0  0  0  0  0  0  0  0  0  0
   -0.9378   -6.5459    5.2538 H   0  0  0  0  0  0  0  0  0  0  0  0
    0.4693   -5.7405    3.8261 H   0  0  0  0  0  0  0  0  0  0  0  0
    1.8292   -4.1006    3.5171 H   0  0  0  0  0  0  0  0  0  0  0  0
    3.2274   -4.9315    3.9940 H   0  0  0  0  0  0  0  0  0  0  0  0
    1.7730   -8.1037    1.1504 H   0  0  0  0  0  0  0  0  0  0  0  0
    4.5675  -10.5638    3.9656 H   0  0  0  0  0  0  0  0  0  0  0  0
    5.6109   -9.2518    3.6275 H   0  0  0  0  0  0  0  0  0  0  0  0
    4.9865  -10.1948    2.2961 H   0  0  0  0  0  0  0  0  0  0  0  0
    2.4886  -10.1596    1.6532 H   0  0  0  0  0  0  0  0  0  0  0  0
    2.6247  -10.8904    3.1790 H   0  0  0  0  0  0  0  0  0  0  0  0
    0.4001   -8.9579    2.4364 H   0  0  0  0  0  0  0  0  0  0  0  0
    0.3790  -10.6638    2.6607 H   0  0  0  0  0  0  0  0  0  0  0  0
   -0.5548   -9.8866    4.5430 H   0  0  0  0  0  0  0  0  0  0  0  0
    0.6707  -10.8456    6.0040 H   0  0  0  0  0  0  0  0  0  0  0  0
    3.0366   -8.8417    5.2149 H   0  0  0  0  0  0  0  0  0  0  0  0
    3.8915   -6.3203    5.4704 H   0  0  0  0  0  0  0  0  0  0  0  0
    4.8515   -7.7247    5.6465 H   0  0  0  0  0  0  0  0  0  0  0  0
    5.7448   -5.7855    4.0963 H   0  0  0  0  0  0  0  0  0  0  0  0
    6.1581   -7.3322    3.8955 H   0  0  0  0  0  0  0  0  0  0  0  0
    6.8919   -6.6384    1.5723 H   0  0  0  0  0  0  0  0  0  0  0  0
    5.6588   -7.2408    0.4763 H   0  0  0  0  0  0  0  0  0  0  0  0
    6.2539   -8.2465    1.7425 H   0  0  0  0  0  0  0  0  0  0  0  0
    4.6176   -5.3488    0.7251 H   0  0  0  0  0  0  0  0  0  0  0  0
    6.7131   -4.3741    0.6178 H   0  0  0  0  0  0  0  0  0  0  0  0
    7.1467   -4.6528    2.3046 H   0  0  0  0  0  0  0  0  0  0  0  0
    7.1367   -3.0409    1.6575 H   0  0  0  0  0  0  0  0  0  0  0  0
    5.5392   -3.8940    4.3155 H   0  0  0  0  0  0  0  0  0  0  0  0
    4.6539   -1.8461    4.9844 H   0  0  0  0  0  0  0  0  0  0  0  0
    3.5948   -0.7267   -0.4255 H   0  0  0  0  0  0  0  0  0  0  0  0
    3.5753    0.5301    0.8019 H   0  0  0  0  0  0  0  0  0  0  0  0
    2.3963   -0.7415    0.8836 H   0  0  0  0  0  0  0  0  0  0  0  0
    6.2299   -1.1352    0.2968 H   0  0  0  0  0  0  0  0  0  0  0  0
    6.5148   -1.0226    2.0424 H   0  0  0  0  0  0  0  0  0  0  0  0
    5.7744    0.3013    1.1965 H   0  0  0  0  0  0  0  0  0  0  0  0
    4.6878   -3.0391    0.1538 H   0  0  0  0  0  0  0  0  0  0  0  0
    2.2572   -2.8514    1.9014 H   0  0  0  0  0  0  0  0  0  0  0  0
    2.0890   -2.3647   -0.1868 H   0  0  0  0  0  0  0  0  0  0  0  0
  1  2  1  0
  1 36  1  0
  1 37  1  0
  1 38  1  0
  2 16  1  0
  2  3  1  0
  2  4  1  0
  3 39  1  0
  3 40  1  0
  3 41  1  0
  4 18  1  0
  4  5  2  3
  5  6  1  0
  5 42  1  0
  6  7  1  0
  6 43  1  0
  6 44  1  0
  7 23  1  0
  7 34  1  0
  7  8  1  6
  8  9  2  0
  8 10  1  0
 10 11  2  0
 10 45  1  0
 11 21  1  0
 11 12  1  0
 12 13  1  1
 12 14  1  0
 12 18  1  0
 13 46  1  0
 13 47  1  0
 13 48  1  0
 14 15  1  0
 14 49  1  0
 14 50  1  0
 15 16  1  0
 15 51  1  0
 15 52  1  0
 16 17  1  0
 16 53  1  6
 17 54  1  0
 18 19  1  0
 18 55  1  1
 19 20  1  0
 19 56  1  0
 19 57  1  0
 20 21  1  0
 20 58  1  0
 20 59  1  0
 21 22  1  6
 21 23  1  0
 22 60  1  0
 22 61  1  0
 22 62  1  0
 23 24  1  0
 23 63  1  6
 24 33  1  0
 24 25  1  6
 24 26  1  0
 25 64  1  0
 25 65  1  0
 25 66  1  0
 26 27  2  0
 26 67  1  0
 27 28  1  0
 27 68  1  0
 28 29  2  0
 28 30  1  0
 30 31  1  0
 30 32  1  0
 30 33  1  0
 31 69  1  0
 31 70  1  0
 31 71  1  0
 32 72  1  0
 32 73  1  0
 32 74  1  0
 33 34  1  0
 33 75  1  6
 34 35  1  0
 34 76  1  1
 35 77  1  0
M  END
>  <i_m_ct_stereo_status>  (323) 
1

>  <s_m_source_file>  (323) 
/var/tmp/pbs.5076255.sched01/tmpnpseqx1a/1202b9de7rm.sdf

>  <i_m_source_file_index>  (323) 
32

>  <i_lp_mmshare_version>  (323) 
48012

>  <i_f3d_flags>  (323) 
0

>  <s_epik_input>  (323) 
W0NIMl0xW0NIMl1bQ0BASF0oW09IXSlDKFtDSDNdKShbQ0gzXSkvQyg9W0NIXVxbQ0gyXTIpW0NASF0oW0NIMl1bQ0gyXTMpW0NAXTEoW0NIM10pQyg9W0NIXUM0PU8pW0NAQF0zKFtDSDNdKVtDQEBIXShbQ0BdMjQ1KVtDQEBdNihbQ0gzXSlbQ0BASF0oW0NASF01W09IXSlDKFtDSDNdKShbQ0gzXSlDKD1PKVtDSF09W0NIXTY=

>  <s_epik_cmdline>  (323) 
J2VwaWtfcHl0aG9uJywgJy1waHQnLCAnMi4wJywgJy1waCcsICc3LjAnLCAnLXRuJywgJzgnLCAnLW1hJywgJzIwMCcsICctaW1hZScsICc8aW5maWxlLm1hZT4nLCAnLW9tYWUnLCAnPG91dGZpbGUubWFlPic=

>  <r_lp_tautomer_probability>  (323) 
1

>  <r_epik_Ionization_Penalty>  (323) 
7.25503e-07

>  <r_epik_Ionization_Penalty_Charging>  (323) 
0

>  <r_epik_Ionization_Penalty_Neutral>  (323) 
7.25503e-07

>  <r_epik_State_Penalty>  (323) 
-0

>  <r_epik_Charging_Adjusted_Penalty>  (323) 
0

>  <i_epik_Tot_Q>  (323) 
0

>  <i_epik_Tot_abs_Q>  (323) 
0

>  <s_lp_Force_Field>  (323) 
OPLS3e

>  <r_lp_Energy>  (323) 
133.067

>  <b_lp_Chiralities_Consistent>  (323) 
1

>  <s_lp_Variant>  (323) 
111:0-2

>  <s_i_glide_gridfile>  (323) 
pfpi4k_grid

>  <i_i_glide_lignum>  (323) 
32

>  <i_i_glide_rotatable_bonds>  (323) 
2

>  <r_i_docking_score>  (323) 
-3.08614

>  <r_i_glide_ligand_efficiency>  (323) 
-0.0881753

>  <r_i_glide_ligand_efficiency_sa>  (323) 
-0.288427

>  <r_i_glide_ligand_efficiency_ln>  (323) 
-0.677475

>  <r_i_glide_gscore>  (323) 
-3.08614

>  <r_i_glide_lipo>  (323) 
-0.465303

>  <r_i_glide_hbond>  (323) 
-0.273869

>  <r_i_glide_metal>  (323) 
-0

>  <r_i_glide_rewards>  (323) 
-0.157656

>  <r_i_glide_evdw>  (323) 
-28.1233

>  <r_i_glide_ecoul>  (323) 
-5.01601

>  <r_i_glide_erotb>  (323) 
0

>  <r_i_glide_esite>  (323) 
-0.0307407

>  <r_i_glide_emodel>  (323) 
-39.4184

>  <r_i_glide_energy>  (323) 
-33.1393

>  <r_i_glide_einternal>  (323) 
1.14511

>  <r_i_glide_intrahb_reward>  (323) 
-0

>  <i_i_glide_confnum>  (323) 
1

>  <i_i_glide_posenum>  (323) 
1

>  <r_i_glide_eff_state_penalty>  (323) 
0

>  <ligand_id>  (323) 
111

>  <original_smiles>  (323) 
CC1(C)C2=CCC34C(=O)C=C5C(C)(CCC1O)C2CCC5(C)C3C1(C)C=CC(=O)C(C)(C)C1C4O

>  <smiles>  (323) 
[H]OC1([H])C([H])([H])C([H])([H])C2(C([H])([H])[H])C3=C([H])C(=O)C45C([H])([H])C([H])=C(C2([H])C([H])([H])C([H])([H])C3(C([H])([H])[H])C4([H])C2(C([H])([H])[H])C([H])=C([H])C(=O)C(C([H])([H])[H])(C([H])([H])[H])C2([H])C5([H])O[H])C1(C([H])([H])[H])C([H])([H])[H]

$$$$
111:1:2
     RDKit          3D

 77 82  0  0  1  0  0  0  0  0999 V2000
    0.6204   -7.4875    6.6204 C   0  0  0  0  0  0  0  0  0  0  0  0
    0.4470   -7.6374    5.0873 C   0  0  0  0  0  0  0  0  0  0  0  0
   -0.9024   -6.9540    4.7260 C   0  0  0  0  0  0  0  0  0  0  0  0
    1.6658   -6.9776    4.3882 C   0  0  0  0  0  0  0  0  0  0  0  0
    1.5165   -5.7835    3.7365 C   0  0  0  0  0  0  0  0  0  0  0  0
    2.5180   -4.7963    3.1323 C   0  0  0  0  0  0  0  0  0  0  0  0
    3.0420   -4.9235    1.6460 C   0  0  2  0  0  0  0  0  0  0  0  0
    2.3017   -6.0575    0.8942 C   0  0  0  0  0  0  0  0  0  0  0  0
    1.3891   -5.8427    0.0913 O   0  0  0  0  0  0  0  0  0  0  0  0
    2.5541   -7.4082    1.3408 C   0  0  0  0  0  0  0  0  0  0  0  0
    3.5709   -7.6837    2.1971 C   0  0  0  0  0  0  0  0  0  0  0  0
    3.2966   -8.7169    3.3081 C   0  0  2  0  0  0  0  0  0  0  0  0
    4.4980   -9.6758    3.5639 C   0  0  0  0  0  0  0  0  0  0  0  0
    2.1561   -9.7620    2.9906 C   0  0  0  0  0  0  0  0  0  0  0  0
    0.6595   -9.4473    3.2363 C   0  0  0  0  0  0  0  0  0  0  0  0
    0.2826   -9.1297    4.6908 C   0  0  1  0  0  0  0  0  0  0  0  0
    0.8859  -10.0399    5.5822 O   0  0  0  0  0  0  0  0  0  0  0  0
    2.9901   -7.8029    4.5433 C   0  0  1  0  0  0  0  0  0  0  0  0
    4.2050   -6.9310    4.9494 C   0  0  0  0  0  0  0  0  0  0  0  0
    5.2492   -6.6404    3.8456 C   0  0  0  0  0  0  0  0  0  0  0  0
    4.7976   -6.7314    2.3587 C   0  0  1  0  0  0  0  0  0  0  0  0
    5.9505   -7.4150    1.5698 C   0  0  0  0  0  0  0  0  0  0  0  0
    4.5222   -5.3211    1.6757 C   0  0  2  0  0  0  0  0  0  0  0  0
    5.3479   -3.9786    1.8560 C   0  0  2  0  0  0  0  0  0  0  0  0
    6.8160   -4.2296    1.4555 C   0  0  0  0  0  0  0  0  0  0  0  0
    5.3157   -3.2924    3.2442 C   0  0  0  0  0  0  0  0  0  0  0  0
    4.8961   -2.0406    3.5318 C   0  0  0  0  0  0  0  0  0  0  0  0
    4.4562   -1.1286    2.4831 C   0  0  0  0  0  0  0  0  0  0  0  0
    3.8891   -0.0683    2.7360 O   0  0  0  0  0  0  0  0  0  0  0  0
    4.7937   -1.5100    1.0297 C   0  0  0  0  0  0  0  0  0  0  0  0
    3.9139   -0.6976    0.0677 C   0  0  0  0  0  0  0  0  0  0  0  0
    6.2383   -1.0552    0.7423 C   0  0  0  0  0  0  0  0  0  0  0  0
    4.6067   -3.0631    0.8387 C   0  0  2  0  0  0  0  0  0  0  0  0
    3.1141   -3.5200    0.9284 C   0  0  1  0  0  0  0  0  0  0  0  0
    2.5697   -3.4210   -0.3737 O   0  0  0  0  0  0  0  0  0  0  0  0
   -0.1798   -7.9749    7.1665 H   0  0  0  0  0  0  0  0  0  0  0  0
    0.6326   -6.4376    6.9132 H   0  0  0  0  0  0  0  0  0  0  0  0
    1.5296   -7.9436    7.0122 H   0  0  0  0  0  0  0  0  0  0  0  0
   -1.7344   -7.4756    5.2020 H   0  0  0  0  0  0  0  0  0  0  0  0
   -1.0736   -6.9254    3.6446 H   0  0  0  0  0  0  0  0  0  0  0  0
   -0.9525   -5.9402    5.1119 H   0  0  0  0  0  0  0  0  0  0  0  0
    0.5360   -5.3425    3.6530 H   0  0  0  0  0  0  0  0  0  0  0  0
    2.0033   -3.8390    3.2322 H   0  0  0  0  0  0  0  0  0  0  0  0
    3.3398   -4.7137    3.8293 H   0  0  0  0  0  0  0  0  0  0  0  0
    1.7043   -8.0500    1.2305 H   0  0  0  0  0  0  0  0  0  0  0  0
    4.2750  -10.4041    4.3386 H   0  0  0  0  0  0  0  0  0  0  0  0
    5.4084   -9.2040    3.9023 H   0  0  0  0  0  0  0  0  0  0  0  0
    4.7411  -10.2217    2.6541 H   0  0  0  0  0  0  0  0  0  0  0  0
    2.2739  -10.0824    1.9568 H   0  0  0  0  0  0  0  0  0  0  0  0
    2.3392  -10.6773    3.5411 H   0  0  0  0  0  0  0  0  0  0  0  0
    0.2669   -8.6796    2.5806 H   0  0  0  0  0  0  0  0  0  0  0  0
    0.1164  -10.3533    2.9614 H   0  0  0  0  0  0  0  0  0  0  0  0
   -0.7746   -9.3776    4.7832 H   0  0  0  0  0  0  0  0  0  0  0  0
    1.8215  -10.0531    5.4414 H   0  0  0  0  0  0  0  0  0  0  0  0
    2.8607   -8.4696    5.3841 H   0  0  0  0  0  0  0  0  0  0  0  0
    3.8722   -6.0078    5.4237 H   0  0  0  0  0  0  0  0  0  0  0  0
    4.7249   -7.4410    5.7617 H   0  0  0  0  0  0  0  0  0  0  0  0
    5.7791   -5.7361    4.0431 H   0  0  0  0  0  0  0  0  0  0  0  0
    6.0900   -7.3144    3.9874 H   0  0  0  0  0  0  0  0  0  0  0  0
    6.8952   -6.8892    1.6272 H   0  0  0  0  0  0  0  0  0  0  0  0
    5.6754   -7.5325    0.5256 H   0  0  0  0  0  0  0  0  0  0  0  0
    6.1515   -8.4185    1.9362 H   0  0  0  0  0  0  0  0  0  0  0  0
    4.7325   -5.5395    0.6266 H   0  0  0  0  0  0  0  0  0  0  0  0
    6.9235   -4.7011    0.4766 H   0  0  0  0  0  0  0  0  0  0  0  0
    7.2929   -4.8699    2.1943 H   0  0  0  0  0  0  0  0  0  0  0  0
    7.4119   -3.3191    1.4446 H   0  0  0  0  0  0  0  0  0  0  0  0
    5.7098   -3.8246    4.0787 H   0  0  0  0  0  0  0  0  0  0  0  0
    4.9430   -1.6599    4.5471 H   0  0  0  0  0  0  0  0  0  0  0  0
    4.0711   -0.9926   -0.9681 H   0  0  0  0  0  0  0  0  0  0  0  0
    4.1399    0.3681    0.1448 H   0  0  0  0  0  0  0  0  0  0  0  0
    2.8505   -0.8048    0.2910 H   0  0  0  0  0  0  0  0  0  0  0  0
    6.6429   -1.5223   -0.1527 H   0  0  0  0  0  0  0  0  0  0  0  0
    6.9077   -1.2433    1.5829 H   0  0  0  0  0  0  0  0  0  0  0  0
    6.2616    0.0265    0.5893 H   0  0  0  0  0  0  0  0  0  0  0  0
    4.9769   -3.3035   -0.1608 H   0  0  0  0  0  0  0  0  0  0  0  0
    2.5479   -2.7963    1.5131 H   0  0  0  0  0  0  0  0  0  0  0  0
    2.9951   -4.0435   -0.9523 H   0  0  0  0  0  0  0  0  0  0  0  0
  1  2  1  0
  1 36  1  0
  1 37  1  0
  1 38  1  0
  2 16  1  0
  2  3  1  0
  2  4  1  0
  3 39  1  0
  3 40  1  0
  3 41  1  0
  4 18  1  0
  4  5  2  3
  5  6  1  0
  5 42  1  0
  6  7  1  0
  6 43  1  0
  6 44  1  0
  7 23  1  0
  7 34  1  0
  7  8  1  6
  8  9  2  0
  8 10  1  0
 10 11  2  0
 10 45  1  0
 11 21  1  0
 11 12  1  0
 12 13  1  1
 12 14  1  0
 12 18  1  0
 13 46  1  0
 13 47  1  0
 13 48  1  0
 14 15  1  0
 14 49  1  0
 14 50  1  0
 15 16  1  0
 15 51  1  0
 15 52  1  0
 16 17  1  0
 16 53  1  6
 17 54  1  0
 18 19  1  0
 18 55  1  1
 19 20  1  0
 19 56  1  0
 19 57  1  0
 20 21  1  0
 20 58  1  0
 20 59  1  0
 21 22  1  6
 21 23  1  0
 22 60  1  0
 22 61  1  0
 22 62  1  0
 23 24  1  0
 23 63  1  6
 24 33  1  0
 24 25  1  6
 24 26  1  0
 25 64  1  0
 25 65  1  0
 25 66  1  0
 26 27  2  0
 26 67  1  0
 27 28  1  0
 27 68  1  0
 28 29  2  0
 28 30  1  0
 30 31  1  0
 30 32  1  0
 30 33  1  0
 31 69  1  0
 31 70  1  0
 31 71  1  0
 32 72  1  0
 32 73  1  0
 32 74  1  0
 33 34  1  0
 33 75  1  6
 34 35  1  0
 34 76  1  1
 35 77  1  0
M  END
>  <i_m_ct_stereo_status>  (324) 
1

>  <s_m_source_file>  (324) 
/var/tmp/pbs.5076255.sched01/tmpnpseqx1a/1202b9de7rm.sdf

>  <i_m_source_file_index>  (324) 
32

>  <i_lp_mmshare_version>  (324) 
48012

>  <i_f3d_flags>  (324) 
0

>  <s_epik_input>  (324) 
W0NIMl0xW0NIMl1bQ0BASF0oW09IXSlDKFtDSDNdKShbQ0gzXSkvQyg9W0NIXVxbQ0gyXTIpW0NASF0oW0NIMl1bQ0gyXTMpW0NAXTEoW0NIM10pQyg9W0NIXUM0PU8pW0NAQF0zKFtDSDNdKVtDQEBIXShbQ0BdMjQ1KVtDQEBdNihbQ0gzXSlbQ0BASF0oW0NASF01W09IXSlDKFtDSDNdKShbQ0gzXSlDKD1PKVtDSF09W0NIXTY=

>  <s_epik_cmdline>  (324) 
J2VwaWtfcHl0aG9uJywgJy1waHQnLCAnMi4wJywgJy1waCcsICc3LjAnLCAnLXRuJywgJzgnLCAnLW1hJywgJzIwMCcsICctaW1hZScsICc8aW5maWxlLm1hZT4nLCAnLW9tYWUnLCAnPG91dGZpbGUubWFlPic=

>  <r_lp_tautomer_probability>  (324) 
1

>  <r_epik_Ionization_Penalty>  (324) 
7.25503e-07

>  <r_epik_Ionization_Penalty_Charging>  (324) 
0

>  <r_epik_Ionization_Penalty_Neutral>  (324) 
7.25503e-07

>  <r_epik_State_Penalty>  (324) 
-0

>  <r_epik_Charging_Adjusted_Penalty>  (324) 
0

>  <i_epik_Tot_Q>  (324) 
0

>  <i_epik_Tot_abs_Q>  (324) 
0

>  <s_lp_Force_Field>  (324) 
OPLS3e

>  <r_lp_Energy>  (324) 
133.067

>  <b_lp_Chiralities_Consistent>  (324) 
1

>  <s_lp_Variant>  (324) 
111:0-2

>  <s_i_glide_gridfile>  (324) 
pfpi4k_grid

>  <i_i_glide_lignum>  (324) 
32

>  <i_i_glide_rotatable_bonds>  (324) 
2

>  <r_i_docking_score>  (324) 
-2.84441

>  <r_i_glide_ligand_efficiency>  (324) 
-0.0812689

>  <r_i_glide_ligand_efficiency_sa>  (324) 
-0.265836

>  <r_i_glide_ligand_efficiency_ln>  (324) 
-0.624411

>  <r_i_glide_gscore>  (324) 
-2.84441

>  <r_i_glide_lipo>  (324) 
-0.516799

>  <r_i_glide_hbond>  (324) 
-0.243882

>  <r_i_glide_metal>  (324) 
-0

>  <r_i_glide_rewards>  (324) 
-0.210627

>  <r_i_glide_evdw>  (324) 
-30.4618

>  <r_i_glide_ecoul>  (324) 
-2.1357

>  <r_i_glide_erotb>  (324) 
0

>  <r_i_glide_esite>  (324) 
-0.0296587

>  <r_i_glide_emodel>  (324) 
-38.959

>  <r_i_glide_energy>  (324) 
-32.5975

>  <r_i_glide_einternal>  (324) 
0.0833361

>  <r_i_glide_intrahb_reward>  (324) 
-0

>  <i_i_glide_confnum>  (324) 
1

>  <i_i_glide_posenum>  (324) 
33

>  <r_i_glide_eff_state_penalty>  (324) 
0

>  <ligand_id>  (324) 
111

>  <original_smiles>  (324) 
CC1(C)C2=CCC34C(=O)C=C5C(C)(CCC1O)C2CCC5(C)C3C1(C)C=CC(=O)C(C)(C)C1C4O

>  <smiles>  (324) 
[H]OC1([H])C([H])([H])C([H])([H])C2(C([H])([H])[H])C3=C([H])C(=O)C45C([H])([H])C([H])=C(C2([H])C([H])([H])C([H])([H])C3(C([H])([H])[H])C4([H])C2(C([H])([H])[H])C([H])=C([H])C(=O)C(C([H])([H])[H])(C([H])([H])[H])C2([H])C5([H])O[H])C1(C([H])([H])[H])C([H])([H])[H]

$$$$
112:0:0
     RDKit          3D

 55 61  0  0  1  0  0  0  0  0999 V2000
    4.9314   -0.2143    0.9109 C   0  0  0  0  0  0  0  0  0  0  0  0
    5.3058   -0.5812    2.2362 O   0  0  0  0  0  0  0  0  0  0  0  0
    4.5799   -1.4249    3.0123 C   0  0  0  0  0  0  0  0  0  0  0  0
    4.8963   -1.6736    4.1755 O   0  0  0  0  0  0  0  0  0  0  0  0
    3.4976   -1.9538    2.3223 N   0  0  0  0  0  0  0  0  0  0  0  0
    2.5364   -2.9040    2.8372 C   0  0  0  0  0  0  0  0  0  0  0  0
    3.1804   -4.2010    3.3639 C   0  0  2  0  0  0  0  0  0  0  0  0
    4.0161   -4.8663    2.3827 N   0  0  0  0  0  0  0  0  0  0  0  0
    4.9891   -5.8275    2.9950 C   0  0  2  0  0  0  0  0  0  0  0  0
    4.6155   -7.1323    2.4309 N   0  0  1  0  0  0  0  0  0  0  0  0
    4.0063   -7.9605    3.4995 C   0  0  0  0  0  0  0  0  0  0  0  0
    4.1837   -7.2234    4.8548 C   0  0  2  0  0  0  0  0  0  0  0  0
    2.9778   -6.5135    5.5717 C   0  0  1  0  0  0  0  0  0  0  0  0
    3.6401   -5.3509    6.3203 C   0  0  0  0  0  0  0  0  0  0  0  0
    5.0405   -5.1300    5.6994 C   0  0  0  0  0  0  0  0  0  0  0  0
    5.2247   -6.1446    4.5432 C   0  0  2  0  0  0  0  0  0  0  0  0
    6.6672   -6.7064    4.6864 C   0  0  0  0  0  0  0  0  0  0  0  0
    1.8985   -6.1023    4.6074 C   0  0  0  0  0  0  0  0  0  0  0  0
    0.8001   -6.8566    4.0786 C   0  0  0  0  0  0  0  0  0  0  0  0
   -0.1244   -7.7296    4.6895 C   0  0  0  0  0  0  0  0  0  0  0  0
   -1.1148   -8.2826    3.8436 C   0  0  0  0  0  0  0  0  0  0  0  0
   -1.1101   -8.0574    2.4388 C   0  0  0  0  0  0  0  0  0  0  0  0
   -0.1089   -7.2555    1.8210 C   0  0  0  0  0  0  0  0  0  0  0  0
    0.7900   -6.6562    2.7039 C   0  0  0  0  0  0  0  0  0  0  0  0
    1.7605   -5.6750    2.4460 C   0  0  0  0  0  0  0  0  0  0  0  0
    2.1832   -5.1847    3.6153 N   0  0  0  0  0  0  0  0  0  0  0  0
    2.9987   -5.5927    1.5469 C   0  0  1  0  0  0  0  0  0  0  0  0
    2.7361   -4.6252    0.0678 Cl  0  0  0  0  0  0  0  0  0  0  0  0
    3.7673   -6.8875    1.2571 C   0  0  0  0  0  0  0  0  0  0  0  0
    5.6668    0.4708    0.4872 H   0  0  0  0  0  0  0  0  0  0  0  0
    3.9635    0.2889    0.9377 H   0  0  0  0  0  0  0  0  0  0  0  0
    4.8565   -1.0933    0.2664 H   0  0  0  0  0  0  0  0  0  0  0  0
    3.3523   -1.6322    1.3799 H   0  0  0  0  0  0  0  0  0  0  0  0
    1.9733   -2.4381    3.6368 H   0  0  0  0  0  0  0  0  0  0  0  0
    1.8001   -3.0650    2.0514 H   0  0  0  0  0  0  0  0  0  0  0  0
    3.6880   -3.9189    4.2545 H   0  0  0  0  0  0  0  0  0  0  0  0
    5.9588   -5.5199    2.5852 H   0  0  0  0  0  0  0  0  0  0  0  0
    2.9848   -8.2532    3.2781 H   0  0  0  0  0  0  0  0  0  0  0  0
    4.5644   -8.8971    3.5131 H   0  0  0  0  0  0  0  0  0  0  0  0
    4.6024   -7.9265    5.5707 H   0  0  0  0  0  0  0  0  0  0  0  0
    2.5510   -7.2220    6.2868 H   0  0  0  0  0  0  0  0  0  0  0  0
    3.0171   -4.4602    6.3100 H   0  0  0  0  0  0  0  0  0  0  0  0
    3.7453   -5.6366    7.3663 H   0  0  0  0  0  0  0  0  0  0  0  0
    5.2644   -4.1048    5.4167 H   0  0  0  0  0  0  0  0  0  0  0  0
    5.7571   -5.3331    6.4946 H   0  0  0  0  0  0  0  0  0  0  0  0
    6.8570   -7.1042    5.6830 H   0  0  0  0  0  0  0  0  0  0  0  0
    7.4114   -5.9265    4.5247 H   0  0  0  0  0  0  0  0  0  0  0  0
    6.8920   -7.5131    3.9908 H   0  0  0  0  0  0  0  0  0  0  0  0
   -0.1243   -7.8943    5.7566 H   0  0  0  0  0  0  0  0  0  0  0  0
   -1.8897   -8.9031    4.2774 H   0  0  0  0  0  0  0  0  0  0  0  0
   -1.8987   -8.4862    1.8407 H   0  0  0  0  0  0  0  0  0  0  0  0
   -0.1256   -7.0456    0.7627 H   0  0  0  0  0  0  0  0  0  0  0  0
    4.4839   -6.6725    0.4674 H   0  0  0  0  0  0  0  0  0  0  0  0
    3.1986   -7.7625    0.9344 H   0  0  0  0  0  0  0  0  0  0  0  0
    5.4841   -7.5828    2.1558 H   0  0  0  0  0  0  0  0  0  0  0  0
  1  2  1  0
  1 30  1  0
  1 31  1  0
  1 32  1  0
  2  3  1  0
  3  4  2  0
  3  5  1  0
  5  6  1  0
  5 33  1  0
  6  7  1  0
  6 34  1  0
  6 35  1  0
  7 26  1  0
  7  8  1  0
  7 36  1  1
  8 27  1  0
  8  9  1  0
  9 16  1  0
  9 10  1  0
  9 37  1  6
 10 29  1  0
 10 11  1  0
 10 55  1  6
 11 12  1  0
 11 38  1  0
 11 39  1  0
 12 16  1  0
 12 13  1  0
 12 40  1  1
 13 14  1  0
 13 18  1  0
 13 41  1  1
 14 15  1  0
 14 42  1  0
 14 43  1  0
 15 16  1  0
 15 44  1  0
 15 45  1  0
 16 17  1  6
 17 46  1  0
 17 47  1  0
 17 48  1  0
 18 26  1  0
 18 19  2  0
 19 24  1  0
 19 20  1  0
 20 21  2  0
 20 49  1  0
 21 22  1  0
 21 50  1  0
 22 23  2  0
 22 51  1  0
 23 24  1  0
 23 52  1  0
 24 25  2  0
 25 26  1  0
 25 27  1  0
 27 28  1  6
 27 29  1  0
 29 53  1  0
 29 54  1  0
M  CHG  1  10   1
M  END
>  <i_m_ct_stereo_status>  (325) 
1

>  <s_m_source_file>  (325) 
/var/tmp/pbs.5076255.sched01/tmpnpseqx1a/1202b9de7rm.sdf

>  <i_m_source_file_index>  (325) 
33

>  <i_lp_mmshare_version>  (325) 
48012

>  <i_f3d_flags>  (325) 
0

>  <s_epik_input>  (325) 
W0NIM11PQyg9TylbTkhdW0NIMl1bQ0BIXTFuMmMoW0NASF0oW0NIMl1bQ0gyXTMpW0NASF00W0NIMl1ONVtDSDJdNiljKFtjSF1bY0hdW2NIXVtjSF03KWM3YzJbQ0BAXTYoQ2wpTjFbQ0BIXTVbQ0BAXTM0W0NIM10=

>  <s_epik_cmdline>  (325) 
J2VwaWtfcHl0aG9uJywgJy1waHQnLCAnMi4wJywgJy1waCcsICc3LjAnLCAnLXRuJywgJzgnLCAnLW1hJywgJzIwMCcsICctaW1hZScsICc8aW5maWxlLm1hZT4nLCAnLW9tYWUnLCAnPG91dGZpbGUubWFlPic=

>  <r_epik_Ionization_Penalty>  (325) 
0.208527

>  <r_epik_Ionization_Penalty_Charging>  (325) 
0.208526

>  <r_epik_Ionization_Penalty_Neutral>  (325) 
9.13312e-07

>  <r_epik_State_Penalty>  (325) 
0.198554

>  <r_epik_Charging_Adjusted_Penalty>  (325) 
0.40708

>  <i_epik_Tot_Q>  (325) 
1

>  <i_epik_Tot_abs_Q>  (325) 
1

>  <s_epik_Chemistry_Notes>  (325) 
This compound has an ester and may undergo hydrolysis at high or low pH. This compound contains an acetal/aminal-like group ( X-CH(R)-Y where X, Y are N, S, or O) that may be acid/base labile, releasing an aldehyde.

>  <s_lp_Force_Field>  (325) 
OPLS3e

>  <r_lp_Energy>  (325) 
79.7462

>  <b_lp_Chiralities_Consistent>  (325) 
1

>  <s_lp_Variant>  (325) 
112:0-1

>  <s_i_glide_gridfile>  (325) 
pfpi4k_grid

>  <i_i_glide_lignum>  (325) 
33

>  <i_i_glide_rotatable_bonds>  (325) 
4

>  <r_i_docking_score>  (325) 
-2.07262

>  <r_i_glide_ligand_efficiency>  (325) 
-0.0714698

>  <r_i_glide_ligand_efficiency_sa>  (325) 
-0.219578

>  <r_i_glide_ligand_efficiency_ln>  (325) 
-0.474578

>  <r_i_glide_gscore>  (325) 
-2.07262

>  <r_i_glide_lipo>  (325) 
-0.224049

>  <r_i_glide_hbond>  (325) 
0

>  <r_i_glide_metal>  (325) 
-0

>  <r_i_glide_rewards>  (325) 
-0.647587

>  <r_i_glide_evdw>  (325) 
-22.9963

>  <r_i_glide_ecoul>  (325) 
-2.63337

>  <r_i_glide_erotb>  (325) 
0.345522

>  <r_i_glide_esite>  (325) 
-0.00168992

>  <r_i_glide_emodel>  (325) 
-23.3152

>  <r_i_glide_energy>  (325) 
-25.6296

>  <r_i_glide_einternal>  (325) 
8.30291

>  <r_i_glide_intrahb_reward>  (325) 
-0

>  <i_i_glide_confnum>  (325) 
5

>  <i_i_glide_posenum>  (325) 
7

>  <r_i_glide_eff_state_penalty>  (325) 
0

>  <ligand_id>  (325) 
112

>  <original_smiles>  (325) 
COC(=O)NCC1N2C3N4CC5C(CCC53C)c3c5ccccc5c(n31)C2(Cl)C4

>  <smiles>  (325) 
[H]c1c([H])c([H])c2c3n4c(c2c1[H])C1(Cl)N(C4([H])C([H])([H])N([H])C(=O)OC([H])([H])[H])C2([H])C4(C([H])([H])[H])C([H])([H])C([H])([H])C3([H])C4([H])C([H])([H])[N+]2([H])C1([H])[H]

$$$$
112:0:1
     RDKit          3D

 55 61  0  0  1  0  0  0  0  0999 V2000
    4.1252   -0.7766   -0.2807 C   0  0  0  0  0  0  0  0  0  0  0  0
    4.8840   -0.9360    0.9131 O   0  0  0  0  0  0  0  0  0  0  0  0
    4.4733   -1.7109    1.9524 C   0  0  0  0  0  0  0  0  0  0  0  0
    5.1218   -1.8008    2.9948 O   0  0  0  0  0  0  0  0  0  0  0  0
    3.2861   -2.3702    1.6690 N   0  0  0  0  0  0  0  0  0  0  0  0
    2.5868   -3.2866    2.5461 C   0  0  0  0  0  0  0  0  0  0  0  0
    3.4565   -4.4712    3.0169 C   0  0  2  0  0  0  0  0  0  0  0  0
    4.0593   -5.2139    1.9256 N   0  0  0  0  0  0  0  0  0  0  0  0
    5.2347   -6.0301    2.3606 C   0  0  2  0  0  0  0  0  0  0  0  0
    4.8477   -7.4171    2.0623 N   0  0  1  0  0  0  0  0  0  0  0  0
    4.6026   -8.1311    3.3379 C   0  0  0  0  0  0  0  0  0  0  0  0
    5.0561   -7.2210    4.5087 C   0  0  2  0  0  0  0  0  0  0  0  0
    4.0173   -6.4898    5.4373 C   0  0  1  0  0  0  0  0  0  0  0  0
    4.7471   -5.2092    5.8523 C   0  0  0  0  0  0  0  0  0  0  0  0
    5.9153   -4.9941    4.8634 C   0  0  0  0  0  0  0  0  0  0  0  0
    5.8849   -6.1358    3.8158 C   0  0  2  0  0  0  0  0  0  0  0  0
    7.3604   -6.5945    3.6311 C   0  0  0  0  0  0  0  0  0  0  0  0
    2.6953   -6.2559    4.7638 C   0  0  0  0  0  0  0  0  0  0  0  0
    1.5662   -7.1305    4.6246 C   0  0  0  0  0  0  0  0  0  0  0  0
    0.9095   -7.9668    5.5518 C   0  0  0  0  0  0  0  0  0  0  0  0
   -0.2151   -8.6730    5.0603 C   0  0  0  0  0  0  0  0  0  0  0  0
   -0.5975   -8.6284    3.6910 C   0  0  0  0  0  0  0  0  0  0  0  0
    0.1369   -7.8624    2.7427 C   0  0  0  0  0  0  0  0  0  0  0  0
    1.1867   -7.1082    3.2911 C   0  0  0  0  0  0  0  0  0  0  0  0
    1.9714   -6.1225    2.6857 C   0  0  0  0  0  0  0  0  0  0  0  0
    2.6451   -5.4652    3.6336 N   0  0  0  0  0  0  0  0  0  0  0  0
    2.9323   -6.1075    1.5037 C   0  0  1  0  0  0  0  0  0  0  0  0
    2.1752   -5.3675    0.0709 Cl  0  0  0  0  0  0  0  0  0  0  0  0
    3.7101   -7.3739    1.1402 C   0  0  0  0  0  0  0  0  0  0  0  0
    4.6237   -0.1113   -0.9876 H   0  0  0  0  0  0  0  0  0  0  0  0
    3.1515   -0.3611   -0.0209 H   0  0  0  0  0  0  0  0  0  0  0  0
    3.9749   -1.7397   -0.7692 H   0  0  0  0  0  0  0  0  0  0  0  0
    2.8564   -2.1639    0.7818 H   0  0  0  0  0  0  0  0  0  0  0  0
    2.2170   -2.7333    3.4031 H   0  0  0  0  0  0  0  0  0  0  0  0
    1.6835   -3.5936    2.0250 H   0  0  0  0  0  0  0  0  0  0  0  0
    4.1395   -4.0421    3.7101 H   0  0  0  0  0  0  0  0  0  0  0  0
    6.0341   -5.7266    1.6768 H   0  0  0  0  0  0  0  0  0  0  0  0
    3.5885   -8.5020    3.4271 H   0  0  0  0  0  0  0  0  0  0  0  0
    5.2186   -9.0284    3.3047 H   0  0  0  0  0  0  0  0  0  0  0  0
    5.7053   -7.8017    5.1609 H   0  0  0  0  0  0  0  0  0  0  0  0
    3.8476   -7.1210    6.3123 H   0  0  0  0  0  0  0  0  0  0  0  0
    4.0695   -4.3605    5.9096 H   0  0  0  0  0  0  0  0  0  0  0  0
    5.1426   -5.3481    6.8566 H   0  0  0  0  0  0  0  0  0  0  0  0
    5.9550   -4.0014    4.4259 H   0  0  0  0  0  0  0  0  0  0  0  0
    6.8293   -5.0481    5.4554 H   0  0  0  0  0  0  0  0  0  0  0  0
    7.8357   -6.8510    4.5779 H   0  0  0  0  0  0  0  0  0  0  0  0
    7.9702   -5.8045    3.1922 H   0  0  0  0  0  0  0  0  0  0  0  0
    7.4677   -7.4699    2.9927 H   0  0  0  0  0  0  0  0  0  0  0  0
    1.1982   -7.9933    6.5911 H   0  0  0  0  0  0  0  0  0  0  0  0
   -0.7947   -9.2757    5.7501 H   0  0  0  0  0  0  0  0  0  0  0  0
   -1.4771   -9.1822    3.3883 H   0  0  0  0  0  0  0  0  0  0  0  0
   -0.1758   -7.7902    1.7110 H   0  0  0  0  0  0  0  0  0  0  0  0
    4.1753   -7.2169    0.1662 H   0  0  0  0  0  0  0  0  0  0  0  0
    3.1498   -8.3060    1.0744 H   0  0  0  0  0  0  0  0  0  0  0  0
    5.6479   -7.8528    1.6187 H   0  0  0  0  0  0  0  0  0  0  0  0
  1  2  1  0
  1 30  1  0
  1 31  1  0
  1 32  1  0
  2  3  1  0
  3  4  2  0
  3  5  1  0
  5  6  1  0
  5 33  1  0
  6  7  1  0
  6 34  1  0
  6 35  1  0
  7 26  1  0
  7  8  1  0
  7 36  1  1
  8 27  1  0
  8  9  1  0
  9 16  1  0
  9 10  1  0
  9 37  1  6
 10 29  1  0
 10 11  1  0
 10 55  1  6
 11 12  1  0
 11 38  1  0
 11 39  1  0
 12 16  1  0
 12 13  1  0
 12 40  1  1
 13 14  1  0
 13 18  1  0
 13 41  1  1
 14 15  1  0
 14 42  1  0
 14 43  1  0
 15 16  1  0
 15 44  1  0
 15 45  1  0
 16 17  1  6
 17 46  1  0
 17 47  1  0
 17 48  1  0
 18 26  1  0
 18 19  2  0
 19 24  1  0
 19 20  1  0
 20 21  2  0
 20 49  1  0
 21 22  1  0
 21 50  1  0
 22 23  2  0
 22 51  1  0
 23 24  1  0
 23 52  1  0
 24 25  2  0
 25 26  1  0
 25 27  1  0
 27 28  1  6
 27 29  1  0
 29 53  1  0
 29 54  1  0
M  CHG  1  10   1
M  END
>  <i_m_ct_stereo_status>  (326) 
1

>  <s_m_source_file>  (326) 
/var/tmp/pbs.5076255.sched01/tmpnpseqx1a/1202b9de7rm.sdf

>  <i_m_source_file_index>  (326) 
33

>  <i_lp_mmshare_version>  (326) 
48012

>  <i_f3d_flags>  (326) 
0

>  <s_epik_input>  (326) 
W0NIM11PQyg9TylbTkhdW0NIMl1bQ0BIXTFuMmMoW0NASF0oW0NIMl1bQ0gyXTMpW0NASF00W0NIMl1ONVtDSDJdNiljKFtjSF1bY0hdW2NIXVtjSF03KWM3YzJbQ0BAXTYoQ2wpTjFbQ0BIXTVbQ0BAXTM0W0NIM10=

>  <s_epik_cmdline>  (326) 
J2VwaWtfcHl0aG9uJywgJy1waHQnLCAnMi4wJywgJy1waCcsICc3LjAnLCAnLXRuJywgJzgnLCAnLW1hJywgJzIwMCcsICctaW1hZScsICc8aW5maWxlLm1hZT4nLCAnLW9tYWUnLCAnPG91dGZpbGUubWFlPic=

>  <r_epik_Ionization_Penalty>  (326) 
0.208527

>  <r_epik_Ionization_Penalty_Charging>  (326) 
0.208526

>  <r_epik_Ionization_Penalty_Neutral>  (326) 
9.13312e-07

>  <r_epik_State_Penalty>  (326) 
0.198554

>  <r_epik_Charging_Adjusted_Penalty>  (326) 
0.40708

>  <i_epik_Tot_Q>  (326) 
1

>  <i_epik_Tot_abs_Q>  (326) 
1

>  <s_epik_Chemistry_Notes>  (326) 
This compound has an ester and may undergo hydrolysis at high or low pH. This compound contains an acetal/aminal-like group ( X-CH(R)-Y where X, Y are N, S, or O) that may be acid/base labile, releasing an aldehyde.

>  <s_lp_Force_Field>  (326) 
OPLS3e

>  <r_lp_Energy>  (326) 
79.7462

>  <b_lp_Chiralities_Consistent>  (326) 
1

>  <s_lp_Variant>  (326) 
112:0-1

>  <s_i_glide_gridfile>  (326) 
pfpi4k_grid

>  <i_i_glide_lignum>  (326) 
33

>  <i_i_glide_rotatable_bonds>  (326) 
4

>  <r_i_docking_score>  (326) 
-1.87396

>  <r_i_glide_ligand_efficiency>  (326) 
-0.0646195

>  <r_i_glide_ligand_efficiency_sa>  (326) 
-0.198531

>  <r_i_glide_ligand_efficiency_ln>  (326) 
-0.42909

>  <r_i_glide_gscore>  (326) 
-1.87396

>  <r_i_glide_lipo>  (326) 
-0.108219

>  <r_i_glide_hbond>  (326) 
0

>  <r_i_glide_metal>  (326) 
-0

>  <r_i_glide_rewards>  (326) 
-0.627596

>  <r_i_glide_evdw>  (326) 
-19.7858

>  <r_i_glide_ecoul>  (326) 
-3.23754

>  <r_i_glide_erotb>  (326) 
0.345522

>  <r_i_glide_esite>  (326) 
-0.0087486

>  <r_i_glide_emodel>  (326) 
-20.3637

>  <r_i_glide_energy>  (326) 
-23.0234

>  <r_i_glide_einternal>  (326) 
8.36189

>  <r_i_glide_intrahb_reward>  (326) 
-0

>  <i_i_glide_confnum>  (326) 
5

>  <i_i_glide_posenum>  (326) 
11

>  <r_i_glide_eff_state_penalty>  (326) 
0

>  <ligand_id>  (326) 
112

>  <original_smiles>  (326) 
COC(=O)NCC1N2C3N4CC5C(CCC53C)c3c5ccccc5c(n31)C2(Cl)C4

>  <smiles>  (326) 
[H]c1c([H])c([H])c2c3n4c(c2c1[H])C1(Cl)N(C4([H])C([H])([H])N([H])C(=O)OC([H])([H])[H])C2([H])C4(C([H])([H])[H])C([H])([H])C([H])([H])C3([H])C4([H])C([H])([H])[N+]2([H])C1([H])[H]

$$$$
112:0:2
     RDKit          3D

 55 61  0  0  1  0  0  0  0  0999 V2000
    3.7118   -0.8715    0.2944 C   0  0  0  0  0  0  0  0  0  0  0  0
    3.0819   -0.1536    1.3510 O   0  0  0  0  0  0  0  0  0  0  0  0
    3.7724    0.1077    2.4697 C   0  0  0  0  0  0  0  0  0  0  0  0
    4.9301   -0.2560    2.6755 O   0  0  0  0  0  0  0  0  0  0  0  0
    2.9765    0.8522    3.3291 N   0  0  0  0  0  0  0  0  0  0  0  0
    3.4322    1.3350    4.6369 C   0  0  0  0  0  0  0  0  0  0  0  0
    2.9951    2.8005    4.9161 C   0  0  2  0  0  0  0  0  0  0  0  0
    3.6662    3.3735    6.0792 N   0  0  0  0  0  0  0  0  0  0  0  0
    3.6602    4.8787    6.0920 C   0  0  2  0  0  0  0  0  0  0  0  0
    2.9338    5.2450    7.3197 N   0  0  1  0  0  0  0  0  0  0  0  0
    1.6165    5.8191    6.9516 C   0  0  0  0  0  0  0  0  0  0  0  0
    1.5937    6.0268    5.4160 C   0  0  2  0  0  0  0  0  0  0  0  0
    0.7629    5.0763    4.4745 C   0  0  1  0  0  0  0  0  0  0  0  0
    1.5624    5.0722    3.1661 C   0  0  0  0  0  0  0  0  0  0  0  0
    2.9883    5.5821    3.4829 C   0  0  0  0  0  0  0  0  0  0  0  0
    3.0655    5.8791    5.0053 C   0  0  2  0  0  0  0  0  0  0  0  0
    3.8133    7.2366    5.1478 C   0  0  0  0  0  0  0  0  0  0  0  0
    0.5395    3.7144    5.0695 C   0  0  0  0  0  0  0  0  0  0  0  0
   -0.4758    3.2670    5.9797 C   0  0  0  0  0  0  0  0  0  0  0  0
   -1.8671    3.4734    6.0184 C   0  0  0  0  0  0  0  0  0  0  0  0
   -2.5755    2.8563    7.0773 C   0  0  0  0  0  0  0  0  0  0  0  0
   -1.8948    2.1406    8.0999 C   0  0  0  0  0  0  0  0  0  0  0  0
   -0.4825    2.0045    8.0920 C   0  0  0  0  0  0  0  0  0  0  0  0
    0.1753    2.5612    6.9853 C   0  0  0  0  0  0  0  0  0  0  0  0
    1.5125    2.4579    6.5917 C   0  0  0  0  0  0  0  0  0  0  0  0
    1.6234    2.8935    5.3243 N   0  0  0  0  0  0  0  0  0  0  0  0
    2.8540    2.8473    7.2285 C   0  0  1  0  0  0  0  0  0  0  0  0
    3.7274    1.4455    7.9289 Cl  0  0  0  0  0  0  0  0  0  0  0  0
    2.8831    4.0596    8.1785 C   0  0  0  0  0  0  0  0  0  0  0  0
    3.0157   -1.0280   -0.5299 H   0  0  0  0  0  0  0  0  0  0  0  0
    4.0549   -1.8533    0.6240 H   0  0  0  0  0  0  0  0  0  0  0  0
    4.5735   -0.3284   -0.0987 H   0  0  0  0  0  0  0  0  0  0  0  0
    2.0363    1.0437    3.0086 H   0  0  0  0  0  0  0  0  0  0  0  0
    3.0348    0.6511    5.3848 H   0  0  0  0  0  0  0  0  0  0  0  0
    4.5177    1.2757    4.7176 H   0  0  0  0  0  0  0  0  0  0  0  0
    3.2030    3.3244    4.0138 H   0  0  0  0  0  0  0  0  0  0  0  0
    4.7151    5.1429    6.2252 H   0  0  0  0  0  0  0  0  0  0  0  0
    0.7791    5.2494    7.3352 H   0  0  0  0  0  0  0  0  0  0  0  0
    1.5576    6.7906    7.4457 H   0  0  0  0  0  0  0  0  0  0  0  0
    1.2648    7.0430    5.1974 H   0  0  0  0  0  0  0  0  0  0  0  0
   -0.2090    5.5397    4.2966 H   0  0  0  0  0  0  0  0  0  0  0  0
    1.5538    4.0937    2.6880 H   0  0  0  0  0  0  0  0  0  0  0  0
    1.0784    5.7567    2.4712 H   0  0  0  0  0  0  0  0  0  0  0  0
    3.8004    4.9589    3.1141 H   0  0  0  0  0  0  0  0  0  0  0  0
    3.1108    6.5054    2.9168 H   0  0  0  0  0  0  0  0  0  0  0  0
    3.3515    8.0230    4.5484 H   0  0  0  0  0  0  0  0  0  0  0  0
    4.8431    7.1525    4.8031 H   0  0  0  0  0  0  0  0  0  0  0  0
    3.8413    7.6097    6.1708 H   0  0  0  0  0  0  0  0  0  0  0  0
   -2.3825    4.0021    5.2277 H   0  0  0  0  0  0  0  0  0  0  0  0
   -3.6579    2.9137    7.1004 H   0  0  0  0  0  0  0  0  0  0  0  0
   -2.4788    1.6622    8.8772 H   0  0  0  0  0  0  0  0  0  0  0  0
    0.0392    1.4155    8.8332 H   0  0  0  0  0  0  0  0  0  0  0  0
    3.8507    4.0551    8.6807 H   0  0  0  0  0  0  0  0  0  0  0  0
    2.1268    4.0989    8.9617 H   0  0  0  0  0  0  0  0  0  0  0  0
    3.4645    5.9712    7.7671 H   0  0  0  0  0  0  0  0  0  0  0  0
  1  2  1  0
  1 30  1  0
  1 31  1  0
  1 32  1  0
  2  3  1  0
  3  4  2  0
  3  5  1  0
  5  6  1  0
  5 33  1  0
  6  7  1  0
  6 34  1  0
  6 35  1  0
  7 26  1  0
  7  8  1  0
  7 36  1  6
  8 27  1  0
  8  9  1  0
  9 16  1  0
  9 10  1  0
  9 37  1  1
 10 29  1  0
 10 11  1  0
 10 55  1  1
 11 12  1  0
 11 38  1  0
 11 39  1  0
 12 16  1  0
 12 13  1  0
 12 40  1  1
 13 14  1  0
 13 18  1  0
 13 41  1  6
 14 15  1  0
 14 42  1  0
 14 43  1  0
 15 16  1  0
 15 44  1  0
 15 45  1  0
 16 17  1  6
 17 46  1  0
 17 47  1  0
 17 48  1  0
 18 26  1  0
 18 19  2  0
 19 24  1  0
 19 20  1  0
 20 21  2  0
 20 49  1  0
 21 22  1  0
 21 50  1  0
 22 23  2  0
 22 51  1  0
 23 24  1  0
 23 52  1  0
 24 25  2  0
 25 26  1  0
 25 27  1  0
 27 28  1  1
 27 29  1  0
 29 53  1  0
 29 54  1  0
M  CHG  1  10   1
M  END
>  <i_m_ct_stereo_status>  (327) 
1

>  <s_m_source_file>  (327) 
/var/tmp/pbs.5076255.sched01/tmpnpseqx1a/1202b9de7rm.sdf

>  <i_m_source_file_index>  (327) 
33

>  <i_lp_mmshare_version>  (327) 
48012

>  <i_f3d_flags>  (327) 
0

>  <s_epik_input>  (327) 
W0NIM11PQyg9TylbTkhdW0NIMl1bQ0BIXTFuMmMoW0NASF0oW0NIMl1bQ0gyXTMpW0NASF00W0NIMl1ONVtDSDJdNiljKFtjSF1bY0hdW2NIXVtjSF03KWM3YzJbQ0BAXTYoQ2wpTjFbQ0BIXTVbQ0BAXTM0W0NIM10=

>  <s_epik_cmdline>  (327) 
J2VwaWtfcHl0aG9uJywgJy1waHQnLCAnMi4wJywgJy1waCcsICc3LjAnLCAnLXRuJywgJzgnLCAnLW1hJywgJzIwMCcsICctaW1hZScsICc8aW5maWxlLm1hZT4nLCAnLW9tYWUnLCAnPG91dGZpbGUubWFlPic=

>  <r_epik_Ionization_Penalty>  (327) 
0.208527

>  <r_epik_Ionization_Penalty_Charging>  (327) 
0.208526

>  <r_epik_Ionization_Penalty_Neutral>  (327) 
9.13312e-07

>  <r_epik_State_Penalty>  (327) 
0.198554

>  <r_epik_Charging_Adjusted_Penalty>  (327) 
0.40708

>  <i_epik_Tot_Q>  (327) 
1

>  <i_epik_Tot_abs_Q>  (327) 
1

>  <s_epik_Chemistry_Notes>  (327) 
This compound has an ester and may undergo hydrolysis at high or low pH. This compound contains an acetal/aminal-like group ( X-CH(R)-Y where X, Y are N, S, or O) that may be acid/base labile, releasing an aldehyde.

>  <s_lp_Force_Field>  (327) 
OPLS3e

>  <r_lp_Energy>  (327) 
79.7462

>  <b_lp_Chiralities_Consistent>  (327) 
1

>  <s_lp_Variant>  (327) 
112:0-1

>  <s_i_glide_gridfile>  (327) 
pfpi4k_grid

>  <i_i_glide_lignum>  (327) 
33

>  <i_i_glide_rotatable_bonds>  (327) 
4

>  <r_i_docking_score>  (327) 
-1.85002

>  <r_i_glide_ligand_efficiency>  (327) 
-0.0637939

>  <r_i_glide_ligand_efficiency_sa>  (327) 
-0.195995

>  <r_i_glide_ligand_efficiency_ln>  (327) 
-0.423608

>  <r_i_glide_gscore>  (327) 
-1.85002

>  <r_i_glide_lipo>  (327) 
-0.271831

>  <r_i_glide_hbond>  (327) 
-0.0174575

>  <r_i_glide_metal>  (327) 
-0

>  <r_i_glide_rewards>  (327) 
-0.608758

>  <r_i_glide_evdw>  (327) 
-20.566

>  <r_i_glide_ecoul>  (327) 
-1.72962

>  <r_i_glide_erotb>  (327) 
0.345522

>  <r_i_glide_esite>  (327) 
-0.0097545

>  <r_i_glide_emodel>  (327) 
-23.2853

>  <r_i_glide_energy>  (327) 
-22.2956

>  <r_i_glide_einternal>  (327) 
0.98266

>  <r_i_glide_intrahb_reward>  (327) 
-0

>  <i_i_glide_confnum>  (327) 
5

>  <i_i_glide_posenum>  (327) 
8

>  <r_i_glide_eff_state_penalty>  (327) 
0

>  <ligand_id>  (327) 
112

>  <original_smiles>  (327) 
COC(=O)NCC1N2C3N4CC5C(CCC53C)c3c5ccccc5c(n31)C2(Cl)C4

>  <smiles>  (327) 
[H]c1c([H])c([H])c2c3n4c(c2c1[H])C1(Cl)N(C4([H])C([H])([H])N([H])C(=O)OC([H])([H])[H])C2([H])C4(C([H])([H])[H])C([H])([H])C([H])([H])C3([H])C4([H])C([H])([H])[N+]2([H])C1([H])[H]

$$$$
112:1:0
     RDKit          3D

 54 60  0  0  1  0  0  0  0  0999 V2000
   -2.4911    2.4830    7.0904 C   0  0  0  0  0  0  0  0  0  0  0  0
   -1.6324    2.1675    6.0055 O   0  0  0  0  0  0  0  0  0  0  0  0
   -1.4966    0.8951    5.6008 C   0  0  0  0  0  0  0  0  0  0  0  0
   -2.1032   -0.0677    6.0796 O   0  0  0  0  0  0  0  0  0  0  0  0
   -0.5694    0.8631    4.5776 N   0  0  0  0  0  0  0  0  0  0  0  0
   -0.1590   -0.3524    3.8818 C   0  0  0  0  0  0  0  0  0  0  0  0
    1.0955   -1.0082    4.5134 C   0  0  2  0  0  0  0  0  0  0  0  0
    2.2570   -0.1380    4.5104 N   0  0  0  0  0  0  0  0  0  0  0  0
    3.3239   -0.5184    5.4900 C   0  0  2  0  0  0  0  0  0  0  0  0
    4.5220   -0.8019    4.7010 N   0  0  0  0  0  0  0  0  0  0  0  0
    4.7365   -2.2496    4.6485 C   0  0  0  0  0  0  0  0  0  0  0  0
    3.8283   -2.9113    5.7119 C   0  0  2  0  0  0  0  0  0  0  0  0
    2.5789   -3.7632    5.2842 C   0  0  1  0  0  0  0  0  0  0  0  0
    1.5810   -3.5467    6.4342 C   0  0  0  0  0  0  0  0  0  0  0  0
    2.0378   -2.2853    7.2154 C   0  0  0  0  0  0  0  0  0  0  0  0
    3.3180   -1.7287    6.5360 C   0  0  2  0  0  0  0  0  0  0  0  0
    4.3066   -1.3775    7.6853 C   0  0  0  0  0  0  0  0  0  0  0  0
    2.0566   -3.3859    3.9245 C   0  0  0  0  0  0  0  0  0  0  0  0
    2.4778   -3.8263    2.6282 C   0  0  0  0  0  0  0  0  0  0  0  0
    2.7874   -5.0990    2.1140 C   0  0  0  0  0  0  0  0  0  0  0  0
    3.1695   -5.1665    0.7490 C   0  0  0  0  0  0  0  0  0  0  0  0
    3.3217   -3.9843   -0.0305 C   0  0  0  0  0  0  0  0  0  0  0  0
    3.0947   -2.7037    0.5266 C   0  0  0  0  0  0  0  0  0  0  0  0
    2.6423   -2.6769    1.8524 C   0  0  0  0  0  0  0  0  0  0  0  0
    2.1890   -1.6118    2.6359 C   0  0  0  0  0  0  0  0  0  0  0  0
    1.5681   -2.1045    3.7140 N   0  0  0  0  0  0  0  0  0  0  0  0
    2.7758   -0.2845    3.1216 C   0  0  1  0  0  0  0  0  0  0  0  0
    2.2347    1.1219    2.1521 Cl  0  0  0  0  0  0  0  0  0  0  0  0
    4.2890   -0.2048    3.3968 C   0  0  0  0  0  0  0  0  0  0  0  0
   -2.4558    3.5525    7.2975 H   0  0  0  0  0  0  0  0  0  0  0  0
   -2.1877    1.9582    7.9959 H   0  0  0  0  0  0  0  0  0  0  0  0
   -3.5256    2.2204    6.8726 H   0  0  0  0  0  0  0  0  0  0  0  0
   -0.1782    1.7455    4.2857 H   0  0  0  0  0  0  0  0  0  0  0  0
   -0.9658   -1.0820    3.8893 H   0  0  0  0  0  0  0  0  0  0  0  0
   -0.0234   -0.1117    2.8269 H   0  0  0  0  0  0  0  0  0  0  0  0
    0.7704   -1.3252    5.4817 H   0  0  0  0  0  0  0  0  0  0  0  0
    3.4912    0.4016    6.0630 H   0  0  0  0  0  0  0  0  0  0  0  0
    4.6186   -2.6567    3.6521 H   0  0  0  0  0  0  0  0  0  0  0  0
    5.7801   -2.4088    4.9140 H   0  0  0  0  0  0  0  0  0  0  0  0
    4.4384   -3.5503    6.3499 H   0  0  0  0  0  0  0  0  0  0  0  0
    2.8709   -4.8138    5.2549 H   0  0  0  0  0  0  0  0  0  0  0  0
    0.5502   -3.4815    6.0779 H   0  0  0  0  0  0  0  0  0  0  0  0
    1.6232   -4.4139    7.1039 H   0  0  0  0  0  0  0  0  0  0  0  0
    1.2724   -1.5290    7.3742 H   0  0  0  0  0  0  0  0  0  0  0  0
    2.2681   -2.6239    8.2256 H   0  0  0  0  0  0  0  0  0  0  0  0
    4.4783   -2.2207    8.3504 H   0  0  0  0  0  0  0  0  0  0  0  0
    3.9183   -0.5667    8.2984 H   0  0  0  0  0  0  0  0  0  0  0  0
    5.2828   -1.0677    7.3183 H   0  0  0  0  0  0  0  0  0  0  0  0
    2.6572   -5.9985    2.6974 H   0  0  0  0  0  0  0  0  0  0  0  0
    3.3257   -6.1281    0.2786 H   0  0  0  0  0  0  0  0  0  0  0  0
    3.5692   -4.0837   -1.0807 H   0  0  0  0  0  0  0  0  0  0  0  0
    3.1579   -1.8066   -0.0703 H   0  0  0  0  0  0  0  0  0  0  0  0
    4.5366    0.8454    3.5449 H   0  0  0  0  0  0  0  0  0  0  0  0
    4.9602   -0.5791    2.6164 H   0  0  0  0  0  0  0  0  0  0  0  0
  1  2  1  0
  1 30  1  0
  1 31  1  0
  1 32  1  0
  2  3  1  0
  3  4  2  0
  3  5  1  0
  5  6  1  0
  5 33  1  0
  6  7  1  0
  6 34  1  0
  6 35  1  0
  7 26  1  0
  7  8  1  0
  7 36  1  1
  8 27  1  0
  8  9  1  0
  9 16  1  0
  9 10  1  0
  9 37  1  1
 10 29  1  0
 10 11  1  0
 11 12  1  0
 11 38  1  0
 11 39  1  0
 12 16  1  0
 12 13  1  0
 12 40  1  1
 13 14  1  0
 13 18  1  0
 13 41  1  6
 14 15  1  0
 14 42  1  0
 14 43  1  0
 15 16  1  0
 15 44  1  0
 15 45  1  0
 16 17  1  1
 17 46  1  0
 17 47  1  0
 17 48  1  0
 18 26  1  0
 18 19  2  0
 19 24  1  0
 19 20  1  0
 20 21  2  0
 20 49  1  0
 21 22  1  0
 21 50  1  0
 22 23  2  0
 22 51  1  0
 23 24  1  0
 23 52  1  0
 24 25  2  0
 25 26  1  0
 25 27  1  0
 27 28  1  6
 27 29  1  0
 29 53  1  0
 29 54  1  0
M  END
>  <i_m_ct_stereo_status>  (328) 
1

>  <s_m_source_file>  (328) 
/var/tmp/pbs.5076255.sched01/tmpnpseqx1a/1202b9de7rm.sdf

>  <i_m_source_file_index>  (328) 
34

>  <i_lp_mmshare_version>  (328) 
48012

>  <i_f3d_flags>  (328) 
0

>  <s_epik_input>  (328) 
W0NIM11PQyg9TylbTkhdW0NIMl1bQ0BIXTFuMmMoW0NASF0oW0NIMl1bQ0gyXTMpW0NASF00W0NIMl1ONVtDSDJdNiljKFtjSF1bY0hdW2NIXVtjSF03KWM3YzJbQ0BAXTYoQ2wpTjFbQ0BIXTVbQ0BAXTM0W0NIM10=

>  <s_epik_cmdline>  (328) 
J2VwaWtfcHl0aG9uJywgJy1waHQnLCAnMi4wJywgJy1waCcsICc3LjAnLCAnLXRuJywgJzgnLCAnLW1hJywgJzIwMCcsICctaW1hZScsICc8aW5maWxlLm1hZT4nLCAnLW9tYWUnLCAnPG91dGZpbGUubWFlPic=

>  <r_epik_Ionization_Penalty>  (328) 
0.71992

>  <r_epik_Ionization_Penalty_Charging>  (328) 
0

>  <r_epik_Ionization_Penalty_Neutral>  (328) 
0.71992

>  <r_epik_State_Penalty>  (328) 
0.744251

>  <r_epik_Charging_Adjusted_Penalty>  (328) 
0.744251

>  <i_epik_Tot_Q>  (328) 
0

>  <i_epik_Tot_abs_Q>  (328) 
0

>  <s_epik_Chemistry_Notes>  (328) 
This compound has an ester and may undergo hydrolysis at high or low pH. This compound contains an acetal/aminal-like group ( X-CH(R)-Y where X, Y are N, S, or O) that may be acid/base labile, releasing an aldehyde.

>  <s_lp_Force_Field>  (328) 
OPLS3e

>  <r_lp_Energy>  (328) 
84.6641

>  <b_lp_Chiralities_Consistent>  (328) 
1

>  <s_lp_Variant>  (328) 
112:0-2

>  <s_i_glide_gridfile>  (328) 
pfpi4k_grid

>  <i_i_glide_lignum>  (328) 
34

>  <i_i_glide_rotatable_bonds>  (328) 
4

>  <r_i_docking_score>  (328) 
-2.08324

>  <r_i_glide_ligand_efficiency>  (328) 
-0.071836

>  <r_i_glide_ligand_efficiency_sa>  (328) 
-0.220703

>  <r_i_glide_ligand_efficiency_ln>  (328) 
-0.47701

>  <r_i_glide_gscore>  (328) 
-2.08324

>  <r_i_glide_lipo>  (328) 
-0.168038

>  <r_i_glide_hbond>  (328) 
-0.16

>  <r_i_glide_metal>  (328) 
-0

>  <r_i_glide_rewards>  (328) 
-0.617831

>  <r_i_glide_evdw>  (328) 
-21.4748

>  <r_i_glide_ecoul>  (328) 
-2.37212

>  <r_i_glide_erotb>  (328) 
0.347046

>  <r_i_glide_esite>  (328) 
-0.0548627

>  <r_i_glide_emodel>  (328) 
-23.0399

>  <r_i_glide_energy>  (328) 
-23.8469

>  <r_i_glide_einternal>  (328) 
4.84532

>  <r_i_glide_intrahb_reward>  (328) 
-0

>  <i_i_glide_confnum>  (328) 
5

>  <i_i_glide_posenum>  (328) 
1

>  <r_i_glide_eff_state_penalty>  (328) 
0

>  <ligand_id>  (328) 
112

>  <original_smiles>  (328) 
COC(=O)NCC1N2C3N4CC5C(CCC53C)c3c5ccccc5c(n31)C2(Cl)C4

>  <smiles>  (328) 
[H]c1c([H])c([H])c2c3n4c(c2c1[H])C1(Cl)N(C2([H])N(C1([H])[H])C([H])([H])C1([H])C3([H])C([H])([H])C([H])([H])C21C([H])([H])[H])C4([H])C([H])([H])N([H])C(=O)OC([H])([H])[H]

$$$$
112:1:1
     RDKit          3D

 54 60  0  0  1  0  0  0  0  0999 V2000
    3.7178   -0.9332    0.1914 C   0  0  0  0  0  0  0  0  0  0  0  0
    3.0561   -0.3385    1.3019 O   0  0  0  0  0  0  0  0  0  0  0  0
    3.7580   -0.0339    2.4005 C   0  0  0  0  0  0  0  0  0  0  0  0
    4.9620   -0.2541    2.5431 O   0  0  0  0  0  0  0  0  0  0  0  0
    2.9169    0.5682    3.3223 N   0  0  0  0  0  0  0  0  0  0  0  0
    3.3683    1.0524    4.6330 C   0  0  0  0  0  0  0  0  0  0  0  0
    2.9998    2.5430    4.8823 C   0  0  2  0  0  0  0  0  0  0  0  0
    3.7493    3.1233    5.9851 N   0  0  0  0  0  0  0  0  0  0  0  0
    3.8248    4.6194    5.9758 C   0  0  2  0  0  0  0  0  0  0  0  0
    3.1957    5.0728    7.2167 N   0  0  0  0  0  0  0  0  0  0  0  0
    1.8710    5.6208    6.9154 C   0  0  0  0  0  0  0  0  0  0  0  0
    1.7700    5.8247    5.3850 C   0  0  2  0  0  0  0  0  0  0  0  0
    0.8462    4.9019    4.5111 C   0  0  1  0  0  0  0  0  0  0  0  0
    1.5768    4.8408    3.1605 C   0  0  0  0  0  0  0  0  0  0  0  0
    3.0417    5.2919    3.3950 C   0  0  0  0  0  0  0  0  0  0  0  0
    3.2078    5.6282    4.9003 C   0  0  2  0  0  0  0  0  0  0  0  0
    4.0089    6.9604    4.9657 C   0  0  0  0  0  0  0  0  0  0  0  0
    0.5902    3.5606    5.1453 C   0  0  0  0  0  0  0  0  0  0  0  0
   -0.3880    3.1768    6.1182 C   0  0  0  0  0  0  0  0  0  0  0  0
   -1.7643    3.4436    6.2344 C   0  0  0  0  0  0  0  0  0  0  0  0
   -2.4384    2.8905    7.3531 C   0  0  0  0  0  0  0  0  0  0  0  0
   -1.7269    2.1775    8.3604 C   0  0  0  0  0  0  0  0  0  0  0  0
   -0.3266    1.9857    8.2710 C   0  0  0  0  0  0  0  0  0  0  0  0
    0.2932    2.4739    7.1144 C   0  0  0  0  0  0  0  0  0  0  0  0
    1.6064    2.3288    6.6501 C   0  0  0  0  0  0  0  0  0  0  0  0
    1.6535    2.6981    5.3638 N   0  0  0  0  0  0  0  0  0  0  0  0
    2.9965    2.6713    7.1861 C   0  0  1  0  0  0  0  0  0  0  0  0
    3.8451    1.2571    7.8858 Cl  0  0  0  0  0  0  0  0  0  0  0  0
    3.1536    3.9120    8.0894 C   0  0  0  0  0  0  0  0  0  0  0  0
    3.0132   -1.1369   -0.6086 H   0  0  0  0  0  0  0  0  0  0  0  0
    4.1904   -1.8773    0.4685 H   0  0  0  0  0  0  0  0  0  0  0  0
    4.4916   -0.2733   -0.2061 H   0  0  0  0  0  0  0  0  0  0  0  0
    1.9471    0.6539    3.0581 H   0  0  0  0  0  0  0  0  0  0  0  0
    2.9250    0.4057    5.3913 H   0  0  0  0  0  0  0  0  0  0  0  0
    4.4472    0.9378    4.7407 H   0  0  0  0  0  0  0  0  0  0  0  0
    3.1692    3.0238    3.9452 H   0  0  0  0  0  0  0  0  0  0  0  0
    4.9001    4.8306    6.0340 H   0  0  0  0  0  0  0  0  0  0  0  0
    1.0674    5.0287    7.3353 H   0  0  0  0  0  0  0  0  0  0  0  0
    1.8236    6.5864    7.4163 H   0  0  0  0  0  0  0  0  0  0  0  0
    1.4673    6.8514    5.1805 H   0  0  0  0  0  0  0  0  0  0  0  0
   -0.1122    5.4023    4.3720 H   0  0  0  0  0  0  0  0  0  0  0  0
    1.5003    3.8555    2.6930 H   0  0  0  0  0  0  0  0  0  0  0  0
    1.0980    5.5468    2.4824 H   0  0  0  0  0  0  0  0  0  0  0  0
    3.8046    4.6193    3.0092 H   0  0  0  0  0  0  0  0  0  0  0  0
    3.1829    6.1865    2.7932 H   0  0  0  0  0  0  0  0  0  0  0  0
    3.5425    7.7450    4.3748 H   0  0  0  0  0  0  0  0  0  0  0  0
    5.0155    6.8278    4.5750 H   0  0  0  0  0  0  0  0  0  0  0  0
    4.0996    7.3462    5.9786 H   0  0  0  0  0  0  0  0  0  0  0  0
   -2.3060    3.9730    5.4646 H   0  0  0  0  0  0  0  0  0  0  0  0
   -3.5131    2.9915    7.4401 H   0  0  0  0  0  0  0  0  0  0  0  0
   -2.2808    1.7495    9.1873 H   0  0  0  0  0  0  0  0  0  0  0  0
    0.2136    1.4110    9.0078 H   0  0  0  0  0  0  0  0  0  0  0  0
    4.1531    3.8790    8.5208 H   0  0  0  0  0  0  0  0  0  0  0  0
    2.4579    4.0225    8.9290 H   0  0  0  0  0  0  0  0  0  0  0  0
  1  2  1  0
  1 30  1  0
  1 31  1  0
  1 32  1  0
  2  3  1  0
  3  4  2  0
  3  5  1  0
  5  6  1  0
  5 33  1  0
  6  7  1  0
  6 34  1  0
  6 35  1  0
  7 26  1  0
  7  8  1  0
  7 36  1  6
  8 27  1  0
  8  9  1  0
  9 16  1  0
  9 10  1  0
  9 37  1  1
 10 29  1  0
 10 11  1  0
 11 12  1  0
 11 38  1  0
 11 39  1  0
 12 16  1  0
 12 13  1  0
 12 40  1  1
 13 14  1  0
 13 18  1  0
 13 41  1  6
 14 15  1  0
 14 42  1  0
 14 43  1  0
 15 16  1  0
 15 44  1  0
 15 45  1  0
 16 17  1  6
 17 46  1  0
 17 47  1  0
 17 48  1  0
 18 26  1  0
 18 19  2  0
 19 24  1  0
 19 20  1  0
 20 21  2  0
 20 49  1  0
 21 22  1  0
 21 50  1  0
 22 23  2  0
 22 51  1  0
 23 24  1  0
 23 52  1  0
 24 25  2  0
 25 26  1  0
 25 27  1  0
 27 28  1  1
 27 29  1  0
 29 53  1  0
 29 54  1  0
M  END
>  <i_m_ct_stereo_status>  (329) 
1

>  <s_m_source_file>  (329) 
/var/tmp/pbs.5076255.sched01/tmpnpseqx1a/1202b9de7rm.sdf

>  <i_m_source_file_index>  (329) 
34

>  <i_lp_mmshare_version>  (329) 
48012

>  <i_f3d_flags>  (329) 
0

>  <s_epik_input>  (329) 
W0NIM11PQyg9TylbTkhdW0NIMl1bQ0BIXTFuMmMoW0NASF0oW0NIMl1bQ0gyXTMpW0NASF00W0NIMl1ONVtDSDJdNiljKFtjSF1bY0hdW2NIXVtjSF03KWM3YzJbQ0BAXTYoQ2wpTjFbQ0BIXTVbQ0BAXTM0W0NIM10=

>  <s_epik_cmdline>  (329) 
J2VwaWtfcHl0aG9uJywgJy1waHQnLCAnMi4wJywgJy1waCcsICc3LjAnLCAnLXRuJywgJzgnLCAnLW1hJywgJzIwMCcsICctaW1hZScsICc8aW5maWxlLm1hZT4nLCAnLW9tYWUnLCAnPG91dGZpbGUubWFlPic=

>  <r_epik_Ionization_Penalty>  (329) 
0.71992

>  <r_epik_Ionization_Penalty_Charging>  (329) 
0

>  <r_epik_Ionization_Penalty_Neutral>  (329) 
0.71992

>  <r_epik_State_Penalty>  (329) 
0.744251

>  <r_epik_Charging_Adjusted_Penalty>  (329) 
0.744251

>  <i_epik_Tot_Q>  (329) 
0

>  <i_epik_Tot_abs_Q>  (329) 
0

>  <s_epik_Chemistry_Notes>  (329) 
This compound has an ester and may undergo hydrolysis at high or low pH. This compound contains an acetal/aminal-like group ( X-CH(R)-Y where X, Y are N, S, or O) that may be acid/base labile, releasing an aldehyde.

>  <s_lp_Force_Field>  (329) 
OPLS3e

>  <r_lp_Energy>  (329) 
84.6641

>  <b_lp_Chiralities_Consistent>  (329) 
1

>  <s_lp_Variant>  (329) 
112:0-2

>  <s_i_glide_gridfile>  (329) 
pfpi4k_grid

>  <i_i_glide_lignum>  (329) 
34

>  <i_i_glide_rotatable_bonds>  (329) 
4

>  <r_i_docking_score>  (329) 
-1.86742

>  <r_i_glide_ligand_efficiency>  (329) 
-0.0643938

>  <r_i_glide_ligand_efficiency_sa>  (329) 
-0.197838

>  <r_i_glide_ligand_efficiency_ln>  (329) 
-0.427592

>  <r_i_glide_gscore>  (329) 
-1.86742

>  <r_i_glide_lipo>  (329) 
-0.293127

>  <r_i_glide_hbond>  (329) 
-0.0402172

>  <r_i_glide_metal>  (329) 
-0

>  <r_i_glide_rewards>  (329) 
-0.623238

>  <r_i_glide_evdw>  (329) 
-20.601

>  <r_i_glide_ecoul>  (329) 
-1.47867

>  <r_i_glide_erotb>  (329) 
0.347046

>  <r_i_glide_esite>  (329) 
-0.00603286

>  <r_i_glide_emodel>  (329) 
-22.3137

>  <r_i_glide_energy>  (329) 
-22.0797

>  <r_i_glide_einternal>  (329) 
1.31457

>  <r_i_glide_intrahb_reward>  (329) 
-0

>  <i_i_glide_confnum>  (329) 
5

>  <i_i_glide_posenum>  (329) 
37

>  <r_i_glide_eff_state_penalty>  (329) 
0

>  <ligand_id>  (329) 
112

>  <original_smiles>  (329) 
COC(=O)NCC1N2C3N4CC5C(CCC53C)c3c5ccccc5c(n31)C2(Cl)C4

>  <smiles>  (329) 
[H]c1c([H])c([H])c2c3n4c(c2c1[H])C1(Cl)N(C2([H])N(C1([H])[H])C([H])([H])C1([H])C3([H])C([H])([H])C([H])([H])C21C([H])([H])[H])C4([H])C([H])([H])N([H])C(=O)OC([H])([H])[H]

$$$$
112:1:2
     RDKit          3D

 54 60  0  0  1  0  0  0  0  0999 V2000
    5.7321   -3.2398   -0.6652 C   0  0  0  0  0  0  0  0  0  0  0  0
    6.2968   -2.2769    0.2138 O   0  0  0  0  0  0  0  0  0  0  0  0
    5.5421   -1.5023    1.0361 C   0  0  0  0  0  0  0  0  0  0  0  0
    6.0520   -0.6538    1.7601 O   0  0  0  0  0  0  0  0  0  0  0  0
    4.1838   -1.8006    0.9386 N   0  0  0  0  0  0  0  0  0  0  0  0
    3.0905   -1.1597    1.6570 C   0  0  0  0  0  0  0  0  0  0  0  0
    3.3944   -0.8553    3.1397 C   0  0  2  0  0  0  0  0  0  0  0  0
    3.6970   -2.0536    3.9045 N   0  0  0  0  0  0  0  0  0  0  0  0
    4.4606   -1.8131    5.1701 C   0  0  2  0  0  0  0  0  0  0  0  0
    3.5914   -2.2759    6.2522 N   0  0  0  0  0  0  0  0  0  0  0  0
    3.0238   -1.1119    6.9338 C   0  0  0  0  0  0  0  0  0  0  0  0
    3.7951    0.1486    6.4806 C   0  0  2  0  0  0  0  0  0  0  0  0
    3.1150    1.2195    5.5534 C   0  0  1  0  0  0  0  0  0  0  0  0
    4.2863    1.7784    4.7329 C   0  0  0  0  0  0  0  0  0  0  0  0
    5.4622    0.7742    4.8575 C   0  0  0  0  0  0  0  0  0  0  0  0
    4.9959   -0.4179    5.7351 C   0  0  2  0  0  0  0  0  0  0  0  0
    6.1727   -0.7176    6.7041 C   0  0  0  0  0  0  0  0  0  0  0  0
    1.9843    0.6310    4.7369 C   0  0  0  0  0  0  0  0  0  0  0  0
    0.6085    0.4404    5.0810 C   0  0  0  0  0  0  0  0  0  0  0  0
   -0.3287    1.2693    5.7212 C   0  0  0  0  0  0  0  0  0  0  0  0
   -1.6262    0.7379    5.8837 C   0  0  0  0  0  0  0  0  0  0  0  0
   -1.9367   -0.6007    5.4985 C   0  0  0  0  0  0  0  0  0  0  0  0
   -0.9447   -1.4552    4.9518 C   0  0  0  0  0  0  0  0  0  0  0  0
    0.2893   -0.8699    4.7293 C   0  0  0  0  0  0  0  0  0  0  0  0
    1.4103   -1.3795    4.0558 C   0  0  0  0  0  0  0  0  0  0  0  0
    2.2439   -0.3654    3.8145 N   0  0  0  0  0  0  0  0  0  0  0  0
    2.3360   -2.5941    4.2248 C   0  0  1  0  0  0  0  0  0  0  0  0
    1.9689   -3.9447    3.1042 Cl  0  0  0  0  0  0  0  0  0  0  0  0
    2.5875   -3.1250    5.6366 C   0  0  0  0  0  0  0  0  0  0  0  0
    6.5261   -3.7182   -1.2388 H   0  0  0  0  0  0  0  0  0  0  0  0
    5.0458   -2.7379   -1.3531 H   0  0  0  0  0  0  0  0  0  0  0  0
    5.1919   -3.9997   -0.0923 H   0  0  0  0  0  0  0  0  0  0  0  0
    3.9082   -2.5044    0.2711 H   0  0  0  0  0  0  0  0  0  0  0  0
    2.8212   -0.2342    1.1557 H   0  0  0  0  0  0  0  0  0  0  0  0
    2.2075   -1.7842    1.5270 H   0  0  0  0  0  0  0  0  0  0  0  0
    4.1589   -0.1157    3.1394 H   0  0  0  0  0  0  0  0  0  0  0  0
    5.3230   -2.4880    5.0835 H   0  0  0  0  0  0  0  0  0  0  0  0
    1.9506   -1.0396    6.8101 H   0  0  0  0  0  0  0  0  0  0  0  0
    3.1886   -1.2795    7.9989 H   0  0  0  0  0  0  0  0  0  0  0  0
    4.1474    0.6845    7.3585 H   0  0  0  0  0  0  0  0  0  0  0  0
    2.7049    2.0167    6.1801 H   0  0  0  0  0  0  0  0  0  0  0  0
    3.9904    1.9781    3.7011 H   0  0  0  0  0  0  0  0  0  0  0  0
    4.5904    2.7374    5.1612 H   0  0  0  0  0  0  0  0  0  0  0  0
    5.8992    0.4648    3.9148 H   0  0  0  0  0  0  0  0  0  0  0  0
    6.2768    1.3116    5.3462 H   0  0  0  0  0  0  0  0  0  0  0  0
    6.4915    0.1679    7.2523 H   0  0  0  0  0  0  0  0  0  0  0  0
    7.0466   -1.0691    6.1613 H   0  0  0  0  0  0  0  0  0  0  0  0
    5.9283   -1.4738    7.4472 H   0  0  0  0  0  0  0  0  0  0  0  0
   -0.0943    2.2893    5.9773 H   0  0  0  0  0  0  0  0  0  0  0  0
   -2.4099    1.3687    6.2722 H   0  0  0  0  0  0  0  0  0  0  0  0
   -2.9512   -0.9505    5.5695 H   0  0  0  0  0  0  0  0  0  0  0  0
   -1.1577   -2.4515    4.6130 H   0  0  0  0  0  0  0  0  0  0  0  0
    3.1064   -4.0759    5.5269 H   0  0  0  0  0  0  0  0  0  0  0  0
    1.7244   -3.3102    6.2754 H   0  0  0  0  0  0  0  0  0  0  0  0
  1  2  1  0
  1 30  1  0
  1 31  1  0
  1 32  1  0
  2  3  1  0
  3  4  2  0
  3  5  1  0
  5  6  1  0
  5 33  1  0
  6  7  1  0
  6 34  1  0
  6 35  1  0
  7 26  1  0
  7  8  1  0
  7 36  1  6
  8 27  1  0
  8  9  1  0
  9 16  1  0
  9 10  1  0
  9 37  1  6
 10 29  1  0
 10 11  1  0
 11 12  1  0
 11 38  1  0
 11 39  1  0
 12 16  1  0
 12 13  1  0
 12 40  1  1
 13 14  1  0
 13 18  1  0
 13 41  1  1
 14 15  1  0
 14 42  1  0
 14 43  1  0
 15 16  1  0
 15 44  1  0
 15 45  1  0
 16 17  1  1
 17 46  1  0
 17 47  1  0
 17 48  1  0
 18 26  1  0
 18 19  2  0
 19 24  1  0
 19 20  1  0
 20 21  2  0
 20 49  1  0
 21 22  1  0
 21 50  1  0
 22 23  2  0
 22 51  1  0
 23 24  1  0
 23 52  1  0
 24 25  2  0
 25 26  1  0
 25 27  1  0
 27 28  1  6
 27 29  1  0
 29 53  1  0
 29 54  1  0
M  END
>  <i_m_ct_stereo_status>  (330) 
1

>  <s_m_source_file>  (330) 
/var/tmp/pbs.5076255.sched01/tmpnpseqx1a/1202b9de7rm.sdf

>  <i_m_source_file_index>  (330) 
34

>  <i_lp_mmshare_version>  (330) 
48012

>  <i_f3d_flags>  (330) 
0

>  <s_epik_input>  (330) 
W0NIM11PQyg9TylbTkhdW0NIMl1bQ0BIXTFuMmMoW0NASF0oW0NIMl1bQ0gyXTMpW0NASF00W0NIMl1ONVtDSDJdNiljKFtjSF1bY0hdW2NIXVtjSF03KWM3YzJbQ0BAXTYoQ2wpTjFbQ0BIXTVbQ0BAXTM0W0NIM10=

>  <s_epik_cmdline>  (330) 
J2VwaWtfcHl0aG9uJywgJy1waHQnLCAnMi4wJywgJy1waCcsICc3LjAnLCAnLXRuJywgJzgnLCAnLW1hJywgJzIwMCcsICctaW1hZScsICc8aW5maWxlLm1hZT4nLCAnLW9tYWUnLCAnPG91dGZpbGUubWFlPic=

>  <r_epik_Ionization_Penalty>  (330) 
0.71992

>  <r_epik_Ionization_Penalty_Charging>  (330) 
0

>  <r_epik_Ionization_Penalty_Neutral>  (330) 
0.71992

>  <r_epik_State_Penalty>  (330) 
0.744251

>  <r_epik_Charging_Adjusted_Penalty>  (330) 
0.744251

>  <i_epik_Tot_Q>  (330) 
0

>  <i_epik_Tot_abs_Q>  (330) 
0

>  <s_epik_Chemistry_Notes>  (330) 
This compound has an ester and may undergo hydrolysis at high or low pH. This compound contains an acetal/aminal-like group ( X-CH(R)-Y where X, Y are N, S, or O) that may be acid/base labile, releasing an aldehyde.

>  <s_lp_Force_Field>  (330) 
OPLS3e

>  <r_lp_Energy>  (330) 
84.6641

>  <b_lp_Chiralities_Consistent>  (330) 
1

>  <s_lp_Variant>  (330) 
112:0-2

>  <s_i_glide_gridfile>  (330) 
pfpi4k_grid

>  <i_i_glide_lignum>  (330) 
34

>  <i_i_glide_rotatable_bonds>  (330) 
4

>  <r_i_docking_score>  (330) 
-1.60739

>  <r_i_glide_ligand_efficiency>  (330) 
-0.0554273

>  <r_i_glide_ligand_efficiency_sa>  (330) 
-0.17029

>  <r_i_glide_ligand_efficiency_ln>  (330) 
-0.368052

>  <r_i_glide_gscore>  (330) 
-1.60739

>  <r_i_glide_lipo>  (330) 
-0.221922

>  <r_i_glide_hbond>  (330) 
0

>  <r_i_glide_metal>  (330) 
-0

>  <r_i_glide_rewards>  (330) 
-0.770246

>  <r_i_glide_evdw>  (330) 
-19.7444

>  <r_i_glide_ecoul>  (330) 
0.225678

>  <r_i_glide_erotb>  (330) 
0.347046

>  <r_i_glide_esite>  (330) 
-0.00890051

>  <r_i_glide_emodel>  (330) 
-15.3934

>  <r_i_glide_energy>  (330) 
-19.5187

>  <r_i_glide_einternal>  (330) 
8.70616

>  <r_i_glide_intrahb_reward>  (330) 
-0

>  <i_i_glide_confnum>  (330) 
5

>  <i_i_glide_posenum>  (330) 
3

>  <r_i_glide_eff_state_penalty>  (330) 
0

>  <ligand_id>  (330) 
112

>  <original_smiles>  (330) 
COC(=O)NCC1N2C3N4CC5C(CCC53C)c3c5ccccc5c(n31)C2(Cl)C4

>  <smiles>  (330) 
[H]c1c([H])c([H])c2c3n4c(c2c1[H])C1(Cl)N(C2([H])N(C1([H])[H])C([H])([H])C1([H])C3([H])C([H])([H])C([H])([H])C21C([H])([H])[H])C4([H])C([H])([H])N([H])C(=O)OC([H])([H])[H]

$$$$
113:0:0
     RDKit          3D

 38 41  0  0  1  0  0  0  0  0999 V2000
    3.8337   -4.4824    2.7773 C   0  0  0  0  0  0  0  0  0  0  0  0
    3.9315   -3.7676    1.4167 C   0  0  2  0  0  0  0  0  0  0  0  0
    2.8288   -4.2571    0.4706 C   0  0  0  0  0  0  0  0  0  0  0  0
    2.8487   -3.4660   -0.8394 C   0  0  0  0  0  0  0  0  0  0  0  0
    4.2141   -3.5461   -1.5604 C   0  0  1  0  0  0  0  0  0  0  0  0
    4.2455   -2.6615   -2.8327 C   0  0  1  0  0  0  0  0  0  0  0  0
    3.1923   -3.0374   -3.8902 C   0  0  0  0  0  0  0  0  0  0  0  0
    4.1938   -1.1649   -2.4875 C   0  0  0  0  0  0  0  0  0  0  0  0
    3.6453   -0.3657   -3.2345 O   0  0  0  0  0  0  0  0  0  0  0  0
    4.8207   -0.8107   -1.3371 O   0  0  0  0  0  0  0  0  0  0  0  0
    5.6935   -1.6719   -0.5995 C   0  0  2  0  0  0  0  0  0  0  0  0
    6.9682   -1.8558   -1.2536 O   0  0  0  0  0  0  0  0  0  0  0  0
    6.7963   -3.2747   -1.2410 C   0  0  1  0  0  0  0  0  0  0  0  0
    7.7715   -3.9486   -0.4509 O   0  0  0  0  0  0  0  0  0  0  0  0
    7.8389   -3.4938    0.8746 C   0  0  0  0  0  0  0  0  0  0  0  0
    6.5002   -3.6737    1.6208 C   0  0  0  0  0  0  0  0  0  0  0  0
    5.2896   -3.9604    0.7070 C   0  0  2  0  0  0  0  0  0  0  0  0
    5.3869   -3.1814   -0.6278 C   0  0  2  0  0  0  0  0  0  0  0  0
    4.0549   -5.5464    2.6892 H   0  0  0  0  0  0  0  0  0  0  0  0
    2.8331   -4.3868    3.2027 H   0  0  0  0  0  0  0  0  0  0  0  0
    4.5239   -4.0550    3.5067 H   0  0  0  0  0  0  0  0  0  0  0  0
    3.7698   -2.7049    1.6034 H   0  0  0  0  0  0  0  0  0  0  0  0
    2.9684   -5.3176    0.2549 H   0  0  0  0  0  0  0  0  0  0  0  0
    1.8536   -4.1594    0.9492 H   0  0  0  0  0  0  0  0  0  0  0  0
    2.0610   -3.8427   -1.4917 H   0  0  0  0  0  0  0  0  0  0  0  0
    2.6071   -2.4275   -0.6171 H   0  0  0  0  0  0  0  0  0  0  0  0
    4.3668   -4.5741   -1.8857 H   0  0  0  0  0  0  0  0  0  0  0  0
    5.2036   -2.7927   -3.3260 H   0  0  0  0  0  0  0  0  0  0  0  0
    3.3918   -2.5199   -4.8264 H   0  0  0  0  0  0  0  0  0  0  0  0
    2.1798   -2.7643   -3.5858 H   0  0  0  0  0  0  0  0  0  0  0  0
    3.2071   -4.1079   -4.0987 H   0  0  0  0  0  0  0  0  0  0  0  0
    5.8284   -1.3131    0.4186 H   0  0  0  0  0  0  0  0  0  0  0  0
    6.7875   -3.6714   -2.2534 H   0  0  0  0  0  0  0  0  0  0  0  0
    8.6370   -4.0385    1.3828 H   0  0  0  0  0  0  0  0  0  0  0  0
    8.1413   -2.4474    0.8660 H   0  0  0  0  0  0  0  0  0  0  0  0
    6.6080   -4.5047    2.3150 H   0  0  0  0  0  0  0  0  0  0  0  0
    6.3215   -2.7910    2.2406 H   0  0  0  0  0  0  0  0  0  0  0  0
    5.3636   -5.0243    0.4669 H   0  0  0  0  0  0  0  0  0  0  0  0
  1  2  1  0
  1 19  1  0
  1 20  1  0
  1 21  1  0
  2 17  1  0
  2  3  1  0
  2 22  1  1
  3  4  1  0
  3 23  1  0
  3 24  1  0
  4  5  1  0
  4 25  1  0
  4 26  1  0
  5 18  1  0
  5  6  1  0
  5 27  1  6
  6  7  1  0
  6  8  1  0
  6 28  1  6
  7 29  1  0
  7 30  1  0
  7 31  1  0
  8  9  2  0
  8 10  1  0
 10 11  1  0
 18 11  1  1
 11 12  1  0
 11 32  1  1
 12 13  1  0
 13 18  1  0
 13 14  1  0
 13 33  1  6
 14 15  1  0
 15 16  1  0
 15 34  1  0
 15 35  1  0
 16 17  1  0
 16 36  1  0
 16 37  1  0
 17 18  1  0
 17 38  1  6
M  END
>  <i_m_ct_stereo_status>  (331) 
1

>  <s_m_source_file>  (331) 
/var/tmp/pbs.5076255.sched01/tmpnpseqx1a/1202b9de7rm.sdf

>  <i_m_source_file_index>  (331) 
35

>  <i_lp_mmshare_version>  (331) 
48012

>  <i_f3d_flags>  (331) 
0

>  <s_epik_input>  (331) 
W0NAQF0xMjNbQ0BIXTRbQ0gyXVtDSDJdW0NAQEhdKFtDSDNdKVtDQEBIXTNbQ0gyXVtDSDJdT1tDQEBIXTJPW0NASF0xT0MoPU8pW0NAQEhdNFtDSDNd

>  <s_epik_cmdline>  (331) 
J2VwaWtfcHl0aG9uJywgJy1waHQnLCAnMi4wJywgJy1waCcsICc3LjAnLCAnLXRuJywgJzgnLCAnLW1hJywgJzIwMCcsICctaW1hZScsICc8aW5maWxlLm1hZT4nLCAnLW9tYWUnLCAnPG91dGZpbGUubWFlPic=

>  <r_lp_tautomer_probability>  (331) 
1

>  <r_epik_Ionization_Penalty>  (331) 
3.93246e-10

>  <r_epik_Ionization_Penalty_Charging>  (331) 
0

>  <r_epik_Ionization_Penalty_Neutral>  (331) 
3.93246e-10

>  <r_epik_State_Penalty>  (331) 
-0

>  <r_epik_Charging_Adjusted_Penalty>  (331) 
0

>  <i_epik_Tot_Q>  (331) 
0

>  <i_epik_Tot_abs_Q>  (331) 
0

>  <s_epik_Chemistry_Notes>  (331) 
This compound has an ester and may undergo hydrolysis at high or low pH. This compound contains an acetal/aminal-like group ( X-CH(R)-Y where X, Y are N, S, or O) that may be acid/base labile, releasing an aldehyde.

>  <s_lp_Force_Field>  (331) 
OPLS3e

>  <r_lp_Energy>  (331) 
45.8477

>  <b_lp_Chiralities_Consistent>  (331) 
1

>  <s_lp_Variant>  (331) 
113:0-1

>  <s_i_glide_gridfile>  (331) 
pfpi4k_grid

>  <i_i_glide_lignum>  (331) 
35

>  <i_i_glide_rotatable_bonds>  (331) 
0

>  <r_i_docking_score>  (331) 
-4.20895

>  <r_i_glide_ligand_efficiency>  (331) 
-0.23383

>  <r_i_glide_ligand_efficiency_sa>  (331) 
-0.612809

>  <r_i_glide_ligand_efficiency_ln>  (331) 
-1.08189

>  <r_i_glide_gscore>  (331) 
-4.20895

>  <r_i_glide_lipo>  (331) 
-0.485265

>  <r_i_glide_hbond>  (331) 
-0.16

>  <r_i_glide_metal>  (331) 
-0

>  <r_i_glide_rewards>  (331) 
-1.85661

>  <r_i_glide_evdw>  (331) 
-20.68

>  <r_i_glide_ecoul>  (331) 
-4.03185

>  <r_i_glide_erotb>  (331) 
0

>  <r_i_glide_esite>  (331) 
-0.0682999

>  <r_i_glide_emodel>  (331) 
-30.8217

>  <r_i_glide_energy>  (331) 
-24.7118

>  <r_i_glide_einternal>  (331) 
0

>  <r_i_glide_intrahb_reward>  (331) 
-0

>  <i_i_glide_confnum>  (331) 
2

>  <i_i_glide_posenum>  (331) 
30

>  <r_i_glide_eff_state_penalty>  (331) 
0

>  <ligand_id>  (331) 
113

>  <original_smiles>  (331) 
CC1CCC2C(C)C(=O)OC3OC4OCCC1C432

>  <smiles>  (331) 
[H]C([H])([H])C1([H])C(=O)OC2([H])OC3([H])OC([H])([H])C([H])([H])C4([H])C([H])(C([H])([H])[H])C([H])([H])C([H])([H])C1([H])C234

$$$$
113:0:1
     RDKit          3D

 38 41  0  0  1  0  0  0  0  0999 V2000
    4.9435   -1.4609    3.9926 C   0  0  0  0  0  0  0  0  0  0  0  0
    4.8880   -1.8516    2.5055 C   0  0  2  0  0  0  0  0  0  0  0  0
    4.5158   -0.6408    1.6449 C   0  0  0  0  0  0  0  0  0  0  0  0
    4.5698   -0.9857    0.1590 C   0  0  0  0  0  0  0  0  0  0  0  0
    3.6472   -2.1744   -0.2069 C   0  0  1  0  0  0  0  0  0  0  0  0
    3.7891   -2.5813   -1.7020 C   0  0  1  0  0  0  0  0  0  0  0  0
    3.4403   -1.4576   -2.6973 C   0  0  0  0  0  0  0  0  0  0  0  0
    5.1726   -3.1959   -1.9937 C   0  0  0  0  0  0  0  0  0  0  0  0
    5.7178   -3.0414   -3.0807 O   0  0  0  0  0  0  0  0  0  0  0  0
    5.7254   -3.8979   -0.9629 O   0  0  0  0  0  0  0  0  0  0  0  0
    5.0054   -4.3356    0.1915 C   0  0  2  0  0  0  0  0  0  0  0  0
    4.0910   -5.4173   -0.0864 O   0  0  0  0  0  0  0  0  0  0  0  0
    3.0000   -4.6323    0.4338 C   0  0  1  0  0  0  0  0  0  0  0  0
    2.3990   -5.1843    1.6013 O   0  0  0  0  0  0  0  0  0  0  0  0
    3.3200   -5.4799    2.6431 C   0  0  0  0  0  0  0  0  0  0  0  0
    4.0412   -4.2114    3.1392 C   0  0  0  0  0  0  0  0  0  0  0  0
    3.8891   -2.9897    2.1957 C   0  0  2  0  0  0  0  0  0  0  0  0
    3.8878   -3.4034    0.7018 C   0  0  2  0  0  0  0  0  0  0  0  0
    3.9595   -1.1958    4.3784 H   0  0  0  0  0  0  0  0  0  0  0  0
    5.6026   -0.6067    4.1488 H   0  0  0  0  0  0  0  0  0  0  0  0
    5.3371   -2.2733    4.6045 H   0  0  0  0  0  0  0  0  0  0  0  0
    5.8884   -2.1750    2.2197 H   0  0  0  0  0  0  0  0  0  0  0  0
    3.5159   -0.2916    1.9021 H   0  0  0  0  0  0  0  0  0  0  0  0
    5.1975    0.1815    1.8491 H   0  0  0  0  0  0  0  0  0  0  0  0
    4.2799   -0.1056   -0.4113 H   0  0  0  0  0  0  0  0  0  0  0  0
    5.6040   -1.1999   -0.1061 H   0  0  0  0  0  0  0  0  0  0  0  0
    2.6245   -1.8398   -0.0557 H   0  0  0  0  0  0  0  0  0  0  0  0
    3.0783   -3.3769   -1.9134 H   0  0  0  0  0  0  0  0  0  0  0  0
    3.3410   -1.8435   -3.7164 H   0  0  0  0  0  0  0  0  0  0  0  0
    4.1927   -0.6664   -2.7189 H   0  0  0  0  0  0  0  0  0  0  0  0
    2.4853   -0.9923   -2.4435 H   0  0  0  0  0  0  0  0  0  0  0  0
    5.6935   -4.6157    0.9847 H   0  0  0  0  0  0  0  0  0  0  0  0
    2.2422   -4.4445   -0.3191 H   0  0  0  0  0  0  0  0  0  0  0  0
    2.7864   -5.9626    3.4697 H   0  0  0  0  0  0  0  0  0  0  0  0
    4.0439   -6.2143    2.2861 H   0  0  0  0  0  0  0  0  0  0  0  0
    3.6340   -3.9516    4.1134 H   0  0  0  0  0  0  0  0  0  0  0  0
    5.0947   -4.4462    3.3089 H   0  0  0  0  0  0  0  0  0  0  0  0
    2.8956   -2.5911    2.4169 H   0  0  0  0  0  0  0  0  0  0  0  0
  1  2  1  0
  1 19  1  0
  1 20  1  0
  1 21  1  0
  2 17  1  0
  2  3  1  0
  2 22  1  6
  3  4  1  0
  3 23  1  0
  3 24  1  0
  4  5  1  0
  4 25  1  0
  4 26  1  0
  5 18  1  0
  5  6  1  0
  5 27  1  6
  6  7  1  0
  6  8  1  0
  6 28  1  6
  7 29  1  0
  7 30  1  0
  7 31  1  0
  8  9  2  0
  8 10  1  0
 10 11  1  0
 18 11  1  6
 11 12  1  0
 11 32  1  1
 12 13  1  0
 13 18  1  0
 13 14  1  0
 13 33  1  6
 14 15  1  0
 15 16  1  0
 15 34  1  0
 15 35  1  0
 16 17  1  0
 16 36  1  0
 16 37  1  0
 17 18  1  0
 17 38  1  1
M  END
>  <i_m_ct_stereo_status>  (332) 
1

>  <s_m_source_file>  (332) 
/var/tmp/pbs.5076255.sched01/tmpnpseqx1a/1202b9de7rm.sdf

>  <i_m_source_file_index>  (332) 
35

>  <i_lp_mmshare_version>  (332) 
48012

>  <i_f3d_flags>  (332) 
0

>  <s_epik_input>  (332) 
W0NAQF0xMjNbQ0BIXTRbQ0gyXVtDSDJdW0NAQEhdKFtDSDNdKVtDQEBIXTNbQ0gyXVtDSDJdT1tDQEBIXTJPW0NASF0xT0MoPU8pW0NAQEhdNFtDSDNd

>  <s_epik_cmdline>  (332) 
J2VwaWtfcHl0aG9uJywgJy1waHQnLCAnMi4wJywgJy1waCcsICc3LjAnLCAnLXRuJywgJzgnLCAnLW1hJywgJzIwMCcsICctaW1hZScsICc8aW5maWxlLm1hZT4nLCAnLW9tYWUnLCAnPG91dGZpbGUubWFlPic=

>  <r_lp_tautomer_probability>  (332) 
1

>  <r_epik_Ionization_Penalty>  (332) 
3.93246e-10

>  <r_epik_Ionization_Penalty_Charging>  (332) 
0

>  <r_epik_Ionization_Penalty_Neutral>  (332) 
3.93246e-10

>  <r_epik_State_Penalty>  (332) 
-0

>  <r_epik_Charging_Adjusted_Penalty>  (332) 
0

>  <i_epik_Tot_Q>  (332) 
0

>  <i_epik_Tot_abs_Q>  (332) 
0

>  <s_epik_Chemistry_Notes>  (332) 
This compound has an ester and may undergo hydrolysis at high or low pH. This compound contains an acetal/aminal-like group ( X-CH(R)-Y where X, Y are N, S, or O) that may be acid/base labile, releasing an aldehyde.

>  <s_lp_Force_Field>  (332) 
OPLS3e

>  <r_lp_Energy>  (332) 
45.8477

>  <b_lp_Chiralities_Consistent>  (332) 
1

>  <s_lp_Variant>  (332) 
113:0-1

>  <s_i_glide_gridfile>  (332) 
pfpi4k_grid

>  <i_i_glide_lignum>  (332) 
35

>  <i_i_glide_rotatable_bonds>  (332) 
0

>  <r_i_docking_score>  (332) 
-3.44434

>  <r_i_glide_ligand_efficiency>  (332) 
-0.191352

>  <r_i_glide_ligand_efficiency_sa>  (332) 
-0.501484

>  <r_i_glide_ligand_efficiency_ln>  (332) 
-0.885349

>  <r_i_glide_gscore>  (332) 
-3.44434

>  <r_i_glide_lipo>  (332) 
-0.239963

>  <r_i_glide_hbond>  (332) 
0

>  <r_i_glide_metal>  (332) 
-0

>  <r_i_glide_rewards>  (332) 
-1.92514

>  <r_i_glide_evdw>  (332) 
-21.9807

>  <r_i_glide_ecoul>  (332) 
-1.06072

>  <r_i_glide_erotb>  (332) 
0

>  <r_i_glide_esite>  (332) 
-0.0210884

>  <r_i_glide_emodel>  (332) 
-28.0328

>  <r_i_glide_energy>  (332) 
-23.0414

>  <r_i_glide_einternal>  (332) 
0

>  <r_i_glide_intrahb_reward>  (332) 
-0

>  <i_i_glide_confnum>  (332) 
1

>  <i_i_glide_posenum>  (332) 
3

>  <r_i_glide_eff_state_penalty>  (332) 
0

>  <ligand_id>  (332) 
113

>  <original_smiles>  (332) 
CC1CCC2C(C)C(=O)OC3OC4OCCC1C432

>  <smiles>  (332) 
[H]C([H])([H])C1([H])C(=O)OC2([H])OC3([H])OC([H])([H])C([H])([H])C4([H])C([H])(C([H])([H])[H])C([H])([H])C([H])([H])C1([H])C234

$$$$
113:0:2
     RDKit          3D

 38 41  0  0  1  0  0  0  0  0999 V2000
    4.6084   -3.0088   -3.5985 C   0  0  0  0  0  0  0  0  0  0  0  0
    4.4055   -3.2335   -2.0973 C   0  0  2  0  0  0  0  0  0  0  0  0
    3.0262   -2.7383   -1.6671 C   0  0  0  0  0  0  0  0  0  0  0  0
    2.7811   -3.0703   -0.1960 C   0  0  0  0  0  0  0  0  0  0  0  0
    3.8494   -2.4716    0.7479 C   0  0  1  0  0  0  0  0  0  0  0  0
    3.6188   -2.9066    2.2227 C   0  0  1  0  0  0  0  0  0  0  0  0
    2.2657   -2.4581    2.8145 C   0  0  0  0  0  0  0  0  0  0  0  0
    3.8497   -4.4148    2.4067 C   0  0  0  0  0  0  0  0  0  0  0  0
    3.1803   -5.0729    3.2036 O   0  0  0  0  0  0  0  0  0  0  0  0
    4.8156   -4.9681    1.6304 O   0  0  0  0  0  0  0  0  0  0  0  0
    5.7542   -4.2092    0.8564 C   0  0  2  0  0  0  0  0  0  0  0  0
    6.7579   -3.5844    1.6719 O   0  0  0  0  0  0  0  0  0  0  0  0
    6.4265   -2.2835    1.1443 C   0  0  1  0  0  0  0  0  0  0  0  0
    7.4735   -1.6702    0.3898 O   0  0  0  0  0  0  0  0  0  0  0  0
    8.0056   -2.5017   -0.6247 C   0  0  0  0  0  0  0  0  0  0  0  0
    6.9276   -2.8273   -1.6692 C   0  0  0  0  0  0  0  0  0  0  0  0
    5.4757   -2.5504   -1.2122 C   0  0  2  0  0  0  0  0  0  0  0  0
    5.2797   -2.8506    0.2988 C   0  0  2  0  0  0  0  0  0  0  0  0
    4.6611   -1.9473   -3.8443 H   0  0  0  0  0  0  0  0  0  0  0  0
    3.7925   -3.4456   -4.1793 H   0  0  0  0  0  0  0  0  0  0  0  0
    5.5270   -3.4896   -3.9246 H   0  0  0  0  0  0  0  0  0  0  0  0
    4.4471   -4.3090   -1.9281 H   0  0  0  0  0  0  0  0  0  0  0  0
    2.9590   -1.6586   -1.8137 H   0  0  0  0  0  0  0  0  0  0  0  0
    2.2400   -3.1833   -2.2814 H   0  0  0  0  0  0  0  0  0  0  0  0
    1.8156   -2.6678    0.0919 H   0  0  0  0  0  0  0  0  0  0  0  0
    2.7182   -4.1529   -0.0933 H   0  0  0  0  0  0  0  0  0  0  0  0
    3.7441   -1.3845    0.7117 H   0  0  0  0  0  0  0  0  0  0  0  0
    4.3714   -2.4308    2.8436 H   0  0  0  0  0  0  0  0  0  0  0  0
    2.2433   -2.5965    3.8995 H   0  0  0  0  0  0  0  0  0  0  0  0
    1.4264   -3.0249    2.4054 H   0  0  0  0  0  0  0  0  0  0  0  0
    2.0832   -1.4002    2.6223 H   0  0  0  0  0  0  0  0  0  0  0  0
    6.2129   -4.8254    0.0835 H   0  0  0  0  0  0  0  0  0  0  0  0
    6.0813   -1.6059    1.9248 H   0  0  0  0  0  0  0  0  0  0  0  0
    8.8419   -1.9772   -1.0875 H   0  0  0  0  0  0  0  0  0  0  0  0
    8.4232   -3.4071   -0.1874 H   0  0  0  0  0  0  0  0  0  0  0  0
    7.1357   -2.2610   -2.5680 H   0  0  0  0  0  0  0  0  0  0  0  0
    7.0533   -3.8550   -1.9825 H   0  0  0  0  0  0  0  0  0  0  0  0
    5.3328   -1.4730   -1.3474 H   0  0  0  0  0  0  0  0  0  0  0  0
  1  2  1  0
  1 19  1  0
  1 20  1  0
  1 21  1  0
  2 17  1  0
  2  3  1  0
  2 22  1  6
  3  4  1  0
  3 23  1  0
  3 24  1  0
  4  5  1  0
  4 25  1  0
  4 26  1  0
  5 18  1  0
  5  6  1  0
  5 27  1  1
  6  7  1  0
  6  8  1  0
  6 28  1  1
  7 29  1  0
  7 30  1  0
  7 31  1  0
  8  9  2  0
  8 10  1  0
 10 11  1  0
 18 11  1  6
 11 12  1  0
 11 32  1  6
 12 13  1  0
 13 18  1  0
 13 14  1  0
 13 33  1  1
 14 15  1  0
 15 16  1  0
 15 34  1  0
 15 35  1  0
 16 17  1  0
 16 36  1  0
 16 37  1  0
 17 18  1  0
 17 38  1  1
M  END
>  <i_m_ct_stereo_status>  (333) 
1

>  <s_m_source_file>  (333) 
/var/tmp/pbs.5076255.sched01/tmpnpseqx1a/1202b9de7rm.sdf

>  <i_m_source_file_index>  (333) 
35

>  <i_lp_mmshare_version>  (333) 
48012

>  <i_f3d_flags>  (333) 
0

>  <s_epik_input>  (333) 
W0NAQF0xMjNbQ0BIXTRbQ0gyXVtDSDJdW0NAQEhdKFtDSDNdKVtDQEBIXTNbQ0gyXVtDSDJdT1tDQEBIXTJPW0NASF0xT0MoPU8pW0NAQEhdNFtDSDNd

>  <s_epik_cmdline>  (333) 
J2VwaWtfcHl0aG9uJywgJy1waHQnLCAnMi4wJywgJy1waCcsICc3LjAnLCAnLXRuJywgJzgnLCAnLW1hJywgJzIwMCcsICctaW1hZScsICc8aW5maWxlLm1hZT4nLCAnLW9tYWUnLCAnPG91dGZpbGUubWFlPic=

>  <r_lp_tautomer_probability>  (333) 
1

>  <r_epik_Ionization_Penalty>  (333) 
3.93246e-10

>  <r_epik_Ionization_Penalty_Charging>  (333) 
0

>  <r_epik_Ionization_Penalty_Neutral>  (333) 
3.93246e-10

>  <r_epik_State_Penalty>  (333) 
-0

>  <r_epik_Charging_Adjusted_Penalty>  (333) 
0

>  <i_epik_Tot_Q>  (333) 
0

>  <i_epik_Tot_abs_Q>  (333) 
0

>  <s_epik_Chemistry_Notes>  (333) 
This compound has an ester and may undergo hydrolysis at high or low pH. This compound contains an acetal/aminal-like group ( X-CH(R)-Y where X, Y are N, S, or O) that may be acid/base labile, releasing an aldehyde.

>  <s_lp_Force_Field>  (333) 
OPLS3e

>  <r_lp_Energy>  (333) 
45.8477

>  <b_lp_Chiralities_Consistent>  (333) 
1

>  <s_lp_Variant>  (333) 
113:0-1

>  <s_i_glide_gridfile>  (333) 
pfpi4k_grid

>  <i_i_glide_lignum>  (333) 
35

>  <i_i_glide_rotatable_bonds>  (333) 
0

>  <r_i_docking_score>  (333) 
-3.29564

>  <r_i_glide_ligand_efficiency>  (333) 
-0.183091

>  <r_i_glide_ligand_efficiency_sa>  (333) 
-0.479835

>  <r_i_glide_ligand_efficiency_ln>  (333) 
-0.847128

>  <r_i_glide_gscore>  (333) 
-3.29564

>  <r_i_glide_lipo>  (333) 
-0.222675

>  <r_i_glide_hbond>  (333) 
-0.0256078

>  <r_i_glide_metal>  (333) 
-0

>  <r_i_glide_rewards>  (333) 
-1.90504

>  <r_i_glide_evdw>  (333) 
-19.6381

>  <r_i_glide_ecoul>  (333) 
-1.06947

>  <r_i_glide_erotb>  (333) 
0

>  <r_i_glide_esite>  (333) 
0

>  <r_i_glide_emodel>  (333) 
-25.4661

>  <r_i_glide_energy>  (333) 
-20.7075

>  <r_i_glide_einternal>  (333) 
0

>  <r_i_glide_intrahb_reward>  (333) 
-0

>  <i_i_glide_confnum>  (333) 
1

>  <i_i_glide_posenum>  (333) 
28

>  <r_i_glide_eff_state_penalty>  (333) 
0

>  <ligand_id>  (333) 
113

>  <original_smiles>  (333) 
CC1CCC2C(C)C(=O)OC3OC4OCCC1C432

>  <smiles>  (333) 
[H]C([H])([H])C1([H])C(=O)OC2([H])OC3([H])OC([H])([H])C([H])([H])C4([H])C([H])(C([H])([H])[H])C([H])([H])C([H])([H])C1([H])C234

$$$$
116:0:0
     RDKit          3D

 65 70  0  0  1  0  0  0  0  0999 V2000
   -0.4438   -7.6031    2.3291 C   0  0  0  0  0  0  0  0  0  0  0  0
    0.2384   -8.2920    3.5444 C   0  0  0  0  0  0  0  0  0  0  0  0
   -0.9009   -8.4937    4.5675 C   0  0  0  0  0  0  0  0  0  0  0  0
    0.7505   -9.6815    3.1454 C   0  0  0  0  0  0  0  0  0  0  0  0
    1.9864   -9.6009    2.2570 C   0  0  0  0  0  0  0  0  0  0  0  0
    3.1350   -8.8240    2.9153 C   0  0  1  0  0  0  0  0  0  0  0  0
    4.1908   -8.9240    1.9872 O   0  0  0  0  0  0  0  0  0  0  0  0
    2.7997   -7.3395    3.3715 C   0  0  2  0  0  0  0  0  0  0  0  0
    2.6636   -6.3982    2.1365 C   0  0  2  0  0  0  0  0  0  0  0  0
    3.7407   -5.9877    1.0907 C   0  0  1  0  0  0  0  0  0  0  0  0
    2.7502   -4.8671    0.7083 C   0  0  1  0  0  0  0  0  0  0  0  0
    1.8145   -5.1547   -0.3117 O   0  0  0  0  0  0  0  0  0  0  0  0
    2.2653   -4.9126    2.1855 C   0  0  2  0  0  0  0  0  0  0  0  0
    2.9333   -3.9695    3.2054 C   0  0  0  0  0  0  0  0  0  0  0  0
    2.9279   -2.5182    2.6647 C   0  0  0  0  0  0  0  0  0  0  0  0
    2.1239   -3.8919    4.5248 C   0  0  0  0  0  0  0  0  0  0  0  0
    4.4046   -4.4101    3.4756 C   0  0  2  0  0  0  0  0  0  0  0  0
    5.2373   -4.4359    2.3138 O   0  0  0  0  0  0  0  0  0  0  0  0
    5.1884   -5.5301    1.3935 C   0  0  0  0  0  0  0  0  0  0  0  0
    6.1427   -6.6658    1.8169 C   0  0  0  0  0  0  0  0  0  0  0  0
    5.8113   -4.9202    0.1260 C   0  0  0  0  0  0  0  0  0  0  0  0
    4.7019   -5.6036    4.4335 C   0  0  1  0  0  0  0  0  0  0  0  0
    4.7766   -5.0154    5.7208 O   0  0  0  0  0  0  0  0  0  0  0  0
    3.7733   -6.8508    4.5016 C   0  0  2  0  0  0  0  0  0  0  0  0
    4.3305   -7.9155    5.2908 O   0  0  0  0  0  0  0  0  0  0  0  0
    3.1845   -7.2776    5.8317 C   0  0  2  0  0  0  0  0  0  0  0  0
    1.8407   -7.8887    5.6000 C   0  0  1  0  0  0  0  0  0  0  0  0
    0.9660   -7.4239    6.6103 O   0  0  0  0  0  0  0  0  0  0  0  0
    1.4260   -7.4505    4.1645 C   0  0  2  0  0  0  0  0  0  0  0  0
   -1.4772   -7.9383    2.2045 H   0  0  0  0  0  0  0  0  0  0  0  0
    0.0317   -7.8351    1.3776 H   0  0  0  0  0  0  0  0  0  0  0  0
   -0.4720   -6.5206    2.4378 H   0  0  0  0  0  0  0  0  0  0  0  0
   -0.5856   -9.1154    5.4065 H   0  0  0  0  0  0  0  0  0  0  0  0
   -1.7417   -9.0279    4.1204 H   0  0  0  0  0  0  0  0  0  0  0  0
   -1.2792   -7.5461    4.9533 H   0  0  0  0  0  0  0  0  0  0  0  0
    1.0016  -10.2553    4.0366 H   0  0  0  0  0  0  0  0  0  0  0  0
   -0.0372  -10.2484    2.6474 H   0  0  0  0  0  0  0  0  0  0  0  0
    2.3148  -10.6210    2.0702 H   0  0  0  0  0  0  0  0  0  0  0  0
    1.7443   -9.1785    1.2843 H   0  0  0  0  0  0  0  0  0  0  0  0
    3.4225   -9.4239    3.7746 H   0  0  0  0  0  0  0  0  0  0  0  0
    4.2870   -9.8343    1.7398 H   0  0  0  0  0  0  0  0  0  0  0  0
    1.9105   -6.8831    1.5246 H   0  0  0  0  0  0  0  0  0  0  0  0
    3.7423   -6.7383    0.3039 H   0  0  0  0  0  0  0  0  0  0  0  0
    3.2471   -3.9311    0.4545 H   0  0  0  0  0  0  0  0  0  0  0  0
    2.2977   -5.2214   -1.1338 H   0  0  0  0  0  0  0  0  0  0  0  0
    1.1818   -4.8200    2.2158 H   0  0  0  0  0  0  0  0  0  0  0  0
    3.1961   -1.7964    3.4355 H   0  0  0  0  0  0  0  0  0  0  0  0
    1.9420   -2.2387    2.2927 H   0  0  0  0  0  0  0  0  0  0  0  0
    3.6404   -2.3645    1.8573 H   0  0  0  0  0  0  0  0  0  0  0  0
    2.5329   -3.1308    5.1895 H   0  0  0  0  0  0  0  0  0  0  0  0
    2.1326   -4.8120    5.0962 H   0  0  0  0  0  0  0  0  0  0  0  0
    1.0814   -3.6328    4.3388 H   0  0  0  0  0  0  0  0  0  0  0  0
    4.8444   -3.5404    3.9714 H   0  0  0  0  0  0  0  0  0  0  0  0
    6.2580   -7.3968    1.0191 H   0  0  0  0  0  0  0  0  0  0  0  0
    5.8123   -7.2256    2.6817 H   0  0  0  0  0  0  0  0  0  0  0  0
    7.1325   -6.2735    2.0475 H   0  0  0  0  0  0  0  0  0  0  0  0
    5.7791   -5.6287   -0.6973 H   0  0  0  0  0  0  0  0  0  0  0  0
    6.8520   -4.6508    0.2945 H   0  0  0  0  0  0  0  0  0  0  0  0
    5.3048   -4.0178   -0.2052 H   0  0  0  0  0  0  0  0  0  0  0  0
    5.7273   -5.9308    4.2894 H   0  0  0  0  0  0  0  0  0  0  0  0
    5.1461   -5.6533    6.3128 H   0  0  0  0  0  0  0  0  0  0  0  0
    3.3670   -6.7596    6.7700 H   0  0  0  0  0  0  0  0  0  0  0  0
    1.9499   -8.9736    5.6929 H   0  0  0  0  0  0  0  0  0  0  0  0
    0.2132   -7.9959    6.6240 H   0  0  0  0  0  0  0  0  0  0  0  0
    1.0333   -6.4441    4.2629 H   0  0  0  0  0  0  0  0  0  0  0  0
  1  2  1  0
  1 30  1  0
  1 31  1  0
  1 32  1  0
  2 29  1  0
  2  3  1  0
  2  4  1  0
  3 33  1  0
  3 34  1  0
  3 35  1  0
  4  5  1  0
  4 36  1  0
  4 37  1  0
  5  6  1  0
  5 38  1  0
  5 39  1  0
  6  7  1  0
  6  8  1  0
  6 40  1  1
  7 41  1  0
  8 24  1  1
  8 29  1  0
  8  9  1  0
  9 13  1  0
  9 10  1  0
  9 42  1  6
 10 19  1  0
 10 11  1  0
 10 43  1  6
 11 12  1  0
 11 13  1  0
 11 44  1  6
 12 45  1  0
 13 14  1  0
 13 46  1  6
 14 15  1  0
 14 16  1  0
 14 17  1  0
 15 47  1  0
 15 48  1  0
 15 49  1  0
 16 50  1  0
 16 51  1  0
 16 52  1  0
 17 18  1  0
 17 22  1  0
 17 53  1  1
 18 19  1  0
 19 20  1  0
 19 21  1  0
 20 54  1  0
 20 55  1  0
 20 56  1  0
 21 57  1  0
 21 58  1  0
 21 59  1  0
 22 23  1  0
 22 24  1  0
 22 60  1  6
 23 61  1  0
 24 26  1  0
 24 25  1  6
 25 26  1  0
 26 27  1  0
 26 62  1  1
 27 28  1  0
 27 29  1  0
 27 63  1  6
 28 64  1  0
 29 65  1  1
M  END
>  <i_m_ct_stereo_status>  (334) 
1

>  <s_m_source_file>  (334) 
/var/tmp/pbs.5076255.sched01/tmpnpseqx1a/1202b9de7rm.sdf

>  <i_m_source_file_index>  (334) 
38

>  <i_lp_mmshare_version>  (334) 
48012

>  <i_f3d_flags>  (334) 
0

>  <s_epik_input>  (334) 
W09IXVtDQEBIXTFbQ0gyXVtDSDJdQyhbQ0gzXSkoW0NIM10pW0NASF0yW0NASF0oW09IXSlbQ0BASF0oTzMpW0NAQF0zKFtDQEBdMTI0KVtDQEhdKFtPSF0pW0NAQEhdNUMoW0NIM10pKFtDSDNdKVtDQEBIXTZbQ0BIXTRbQ0BASF0oW0NASF02W09IXSlDKE81KShbQ0gzXSlbQ0gzXQ==

>  <s_epik_cmdline>  (334) 
J2VwaWtfcHl0aG9uJywgJy1waHQnLCAnMi4wJywgJy1waCcsICc3LjAnLCAnLXRuJywgJzgnLCAnLW1hJywgJzIwMCcsICctaW1hZScsICc8aW5maWxlLm1hZT4nLCAnLW9tYWUnLCAnPG91dGZpbGUubWFlPic=

>  <r_lp_tautomer_probability>  (334) 
1

>  <r_epik_Ionization_Penalty>  (334) 
5.43467e-07

>  <r_epik_Ionization_Penalty_Charging>  (334) 
0

>  <r_epik_Ionization_Penalty_Neutral>  (334) 
5.43467e-07

>  <r_epik_State_Penalty>  (334) 
-0

>  <r_epik_Charging_Adjusted_Penalty>  (334) 
0

>  <i_epik_Tot_Q>  (334) 
0

>  <i_epik_Tot_abs_Q>  (334) 
0

>  <s_lp_Force_Field>  (334) 
OPLS3e

>  <r_lp_Energy>  (334) 
92.529

>  <b_lp_Chiralities_Consistent>  (334) 
1

>  <s_lp_Variant>  (334) 
116:0-1

>  <s_i_glide_gridfile>  (334) 
pfpi4k_grid

>  <i_i_glide_lignum>  (334) 
38

>  <i_i_glide_rotatable_bonds>  (334) 
4

>  <r_i_docking_score>  (334) 
-3.49335

>  <r_i_glide_ligand_efficiency>  (334) 
-0.12046

>  <r_i_glide_ligand_efficiency_sa>  (334) 
-0.370092

>  <r_i_glide_ligand_efficiency_ln>  (334) 
-0.799888

>  <r_i_glide_gscore>  (334) 
-3.49335

>  <r_i_glide_lipo>  (334) 
-0.328971

>  <r_i_glide_hbond>  (334) 
-0.363638

>  <r_i_glide_metal>  (334) 
-0

>  <r_i_glide_rewards>  (334) 
-0.62367

>  <r_i_glide_evdw>  (334) 
-23.6493

>  <r_i_glide_ecoul>  (334) 
-6.6307

>  <r_i_glide_erotb>  (334) 
0

>  <r_i_glide_esite>  (334) 
0

>  <r_i_glide_emodel>  (334) 
-35.874

>  <r_i_glide_energy>  (334) 
-30.28

>  <r_i_glide_einternal>  (334) 
2.4026

>  <r_i_glide_intrahb_reward>  (334) 
-0

>  <i_i_glide_confnum>  (334) 
1

>  <i_i_glide_posenum>  (334) 
29

>  <r_i_glide_eff_state_penalty>  (334) 
0

>  <ligand_id>  (334) 
116

>  <original_smiles>  (334) 
CC1(C)CCC(O)C23C4C5C(O)C4C(C)(C)C(OC5(C)C)C(O)C24OC4C(O)C13

>  <smiles>  (334) 
[H]OC1([H])C2([H])C3([H])C1([H])C(C([H])([H])[H])(C([H])([H])[H])C([H])(OC2(C([H])([H])[H])C([H])([H])[H])C([H])(O[H])C12OC1([H])C([H])(O[H])C1([H])C(C([H])([H])[H])(C([H])([H])[H])C([H])([H])C([H])([H])C([H])(O[H])C312

$$$$
116:0:1
     RDKit          3D

 65 70  0  0  1  0  0  0  0  0999 V2000
    1.4307   -7.5255    1.9334 C   0  0  0  0  0  0  0  0  0  0  0  0
    2.5143   -7.7881    3.0139 C   0  0  0  0  0  0  0  0  0  0  0  0
    1.7601   -8.5029    4.1637 C   0  0  0  0  0  0  0  0  0  0  0  0
    3.5759   -8.7623    2.4716 C   0  0  0  0  0  0  0  0  0  0  0  0
    4.4908   -8.1056    1.4396 C   0  0  0  0  0  0  0  0  0  0  0  0
    5.1953   -6.8630    2.0108 C   0  0  1  0  0  0  0  0  0  0  0  0
    6.0595   -6.4383    0.9880 O   0  0  0  0  0  0  0  0  0  0  0  0
    4.2559   -5.7202    2.5714 C   0  0  2  0  0  0  0  0  0  0  0  0
    3.5355   -4.9835    1.4086 C   0  0  2  0  0  0  0  0  0  0  0  0
    4.1265   -4.1228    0.2520 C   0  0  1  0  0  0  0  0  0  0  0  0
    2.6755   -3.6162    0.0728 C   0  0  1  0  0  0  0  0  0  0  0  0
    1.8178   -4.3587   -0.7715 O   0  0  0  0  0  0  0  0  0  0  0  0
    2.4947   -3.8699    1.5884 C   0  0  2  0  0  0  0  0  0  0  0  0
    2.7379   -2.6996    2.5536 C   0  0  0  0  0  0  0  0  0  0  0  0
    1.9717   -1.4357    2.0839 C   0  0  0  0  0  0  0  0  0  0  0  0
    2.1652   -2.9982    3.9600 C   0  0  0  0  0  0  0  0  0  0  0  0
    4.2537   -2.3687    2.6175 C   0  0  2  0  0  0  0  0  0  0  0  0
    4.8435   -2.0217    1.3576 O   0  0  0  0  0  0  0  0  0  0  0  0
    5.2080   -3.0196    0.3947 C   0  0  0  0  0  0  0  0  0  0  0  0
    6.6356   -3.5437    0.6477 C   0  0  0  0  0  0  0  0  0  0  0  0
    5.2991   -2.2074   -0.9102 C   0  0  0  0  0  0  0  0  0  0  0  0
    5.1923   -3.2572    3.4820 C   0  0  1  0  0  0  0  0  0  0  0  0
    5.1679   -2.6780    4.7762 O   0  0  0  0  0  0  0  0  0  0  0  0
    5.0041   -4.7998    3.5953 C   0  0  2  0  0  0  0  0  0  0  0  0
    6.1080   -5.4611    4.2487 O   0  0  0  0  0  0  0  0  0  0  0  0
    4.8867   -5.4405    4.9629 C   0  0  2  0  0  0  0  0  0  0  0  0
    3.9709   -6.6188    4.8795 C   0  0  1  0  0  0  0  0  0  0  0  0
    3.1271   -6.6100    6.0150 O   0  0  0  0  0  0  0  0  0  0  0  0
    3.2190   -6.4663    3.5233 C   0  0  2  0  0  0  0  0  0  0  0  0
    0.6824   -8.3214    1.9157 H   0  0  0  0  0  0  0  0  0  0  0  0
    1.8272   -7.4987    0.9198 H   0  0  0  0  0  0  0  0  0  0  0  0
    0.8907   -6.5933    2.1112 H   0  0  0  0  0  0  0  0  0  0  0  0
    2.4391   -8.8642    4.9374 H   0  0  0  0  0  0  0  0  0  0  0  0
    1.2231   -9.3833    3.8036 H   0  0  0  0  0  0  0  0  0  0  0  0
    1.0274   -7.8417    4.6355 H   0  0  0  0  0  0  0  0  0  0  0  0
    4.1861   -9.1308    3.2961 H   0  0  0  0  0  0  0  0  0  0  0  0
    3.0984   -9.6481    2.0488 H   0  0  0  0  0  0  0  0  0  0  0  0
    5.2371   -8.8428    1.1495 H   0  0  0  0  0  0  0  0  0  0  0  0
    3.9439   -7.8688    0.5323 H   0  0  0  0  0  0  0  0  0  0  0  0
    5.8347   -7.2444    2.8036 H   0  0  0  0  0  0  0  0  0  0  0  0
    5.5336   -6.1560    0.2568 H   0  0  0  0  0  0  0  0  0  0  0  0
    3.0245   -5.7823    0.8757 H   0  0  0  0  0  0  0  0  0  0  0  0
    4.3769   -4.7955   -0.5738 H   0  0  0  0  0  0  0  0  0  0  0  0
    2.6219   -2.5687   -0.2212 H   0  0  0  0  0  0  0  0  0  0  0  0
    2.3551   -4.7627   -1.4422 H   0  0  0  0  0  0  0  0  0  0  0  0
    1.5261   -4.3394    1.7775 H   0  0  0  0  0  0  0  0  0  0  0  0
    1.9619   -0.6616    2.8481 H   0  0  0  0  0  0  0  0  0  0  0  0
    0.9362   -1.6711    1.8514 H   0  0  0  0  0  0  0  0  0  0  0  0
    2.4101   -0.9750    1.2020 H   0  0  0  0  0  0  0  0  0  0  0  0
    2.2377   -2.1232    4.6044 H   0  0  0  0  0  0  0  0  0  0  0  0
    2.6817   -3.7978    4.4782 H   0  0  0  0  0  0  0  0  0  0  0  0
    1.1141   -3.2737    3.9069 H   0  0  0  0  0  0  0  0  0  0  0  0
    4.2802   -1.3848    3.0946 H   0  0  0  0  0  0  0  0  0  0  0  0
    6.9853   -4.1419   -0.1902 H   0  0  0  0  0  0  0  0  0  0  0  0
    6.7312   -4.1733    1.5218 H   0  0  0  0  0  0  0  0  0  0  0  0
    7.3347   -2.7209    0.7786 H   0  0  0  0  0  0  0  0  0  0  0  0
    5.5198   -2.8514   -1.7601 H   0  0  0  0  0  0  0  0  0  0  0  0
    6.0867   -1.4596   -0.8472 H   0  0  0  0  0  0  0  0  0  0  0  0
    4.3808   -1.6688   -1.1349 H   0  0  0  0  0  0  0  0  0  0  0  0
    6.2014   -3.0497    3.1536 H   0  0  0  0  0  0  0  0  0  0  0  0
    4.2923   -2.7322    5.1222 H   0  0  0  0  0  0  0  0  0  0  0  0
    4.9304   -4.8771    5.8936 H   0  0  0  0  0  0  0  0  0  0  0  0
    4.5852   -7.5207    4.9076 H   0  0  0  0  0  0  0  0  0  0  0  0
    2.6435   -5.8020    6.0454 H   0  0  0  0  0  0  0  0  0  0  0  0
    2.4040   -5.7731    3.7067 H   0  0  0  0  0  0  0  0  0  0  0  0
  1  2  1  0
  1 30  1  0
  1 31  1  0
  1 32  1  0
  2 29  1  0
  2  3  1  0
  2  4  1  0
  3 33  1  0
  3 34  1  0
  3 35  1  0
  4  5  1  0
  4 36  1  0
  4 37  1  0
  5  6  1  0
  5 38  1  0
  5 39  1  0
  6  7  1  0
  6  8  1  0
  6 40  1  1
  7 41  1  0
  8 24  1  1
  8 29  1  0
  8  9  1  0
  9 13  1  0
  9 10  1  0
  9 42  1  6
 10 19  1  0
 10 11  1  0
 10 43  1  6
 11 12  1  0
 11 13  1  0
 11 44  1  1
 12 45  1  0
 13 14  1  0
 13 46  1  6
 14 15  1  0
 14 16  1  0
 14 17  1  0
 15 47  1  0
 15 48  1  0
 15 49  1  0
 16 50  1  0
 16 51  1  0
 16 52  1  0
 17 18  1  0
 17 22  1  0
 17 53  1  1
 18 19  1  0
 19 20  1  0
 19 21  1  0
 20 54  1  0
 20 55  1  0
 20 56  1  0
 21 57  1  0
 21 58  1  0
 21 59  1  0
 22 23  1  0
 22 24  1  0
 22 60  1  6
 23 61  1  0
 24 26  1  0
 24 25  1  6
 25 26  1  0
 26 27  1  0
 26 62  1  1
 27 28  1  0
 27 29  1  0
 27 63  1  6
 28 64  1  0
 29 65  1  1
M  END
>  <i_m_ct_stereo_status>  (335) 
1

>  <s_m_source_file>  (335) 
/var/tmp/pbs.5076255.sched01/tmpnpseqx1a/1202b9de7rm.sdf

>  <i_m_source_file_index>  (335) 
38

>  <i_lp_mmshare_version>  (335) 
48012

>  <i_f3d_flags>  (335) 
0

>  <s_epik_input>  (335) 
W09IXVtDQEBIXTFbQ0gyXVtDSDJdQyhbQ0gzXSkoW0NIM10pW0NASF0yW0NASF0oW09IXSlbQ0BASF0oTzMpW0NAQF0zKFtDQEBdMTI0KVtDQEhdKFtPSF0pW0NAQEhdNUMoW0NIM10pKFtDSDNdKVtDQEBIXTZbQ0BIXTRbQ0BASF0oW0NASF02W09IXSlDKE81KShbQ0gzXSlbQ0gzXQ==

>  <s_epik_cmdline>  (335) 
J2VwaWtfcHl0aG9uJywgJy1waHQnLCAnMi4wJywgJy1waCcsICc3LjAnLCAnLXRuJywgJzgnLCAnLW1hJywgJzIwMCcsICctaW1hZScsICc8aW5maWxlLm1hZT4nLCAnLW9tYWUnLCAnPG91dGZpbGUubWFlPic=

>  <r_lp_tautomer_probability>  (335) 
1

>  <r_epik_Ionization_Penalty>  (335) 
5.43467e-07

>  <r_epik_Ionization_Penalty_Charging>  (335) 
0

>  <r_epik_Ionization_Penalty_Neutral>  (335) 
5.43467e-07

>  <r_epik_State_Penalty>  (335) 
-0

>  <r_epik_Charging_Adjusted_Penalty>  (335) 
0

>  <i_epik_Tot_Q>  (335) 
0

>  <i_epik_Tot_abs_Q>  (335) 
0

>  <s_lp_Force_Field>  (335) 
OPLS3e

>  <r_lp_Energy>  (335) 
92.529

>  <b_lp_Chiralities_Consistent>  (335) 
1

>  <s_lp_Variant>  (335) 
116:0-1

>  <s_i_glide_gridfile>  (335) 
pfpi4k_grid

>  <i_i_glide_lignum>  (335) 
38

>  <i_i_glide_rotatable_bonds>  (335) 
4

>  <r_i_docking_score>  (335) 
-2.98315

>  <r_i_glide_ligand_efficiency>  (335) 
-0.102867

>  <r_i_glide_ligand_efficiency_sa>  (335) 
-0.31604

>  <r_i_glide_ligand_efficiency_ln>  (335) 
-0.683065

>  <r_i_glide_gscore>  (335) 
-2.98315

>  <r_i_glide_lipo>  (335) 
-0.264248

>  <r_i_glide_hbond>  (335) 
-0.32043

>  <r_i_glide_metal>  (335) 
-0

>  <r_i_glide_rewards>  (335) 
-0.62367

>  <r_i_glide_evdw>  (335) 
-19.8921

>  <r_i_glide_ecoul>  (335) 
-5.20129

>  <r_i_glide_erotb>  (335) 
0

>  <r_i_glide_esite>  (335) 
0

>  <r_i_glide_emodel>  (335) 
-30.0894

>  <r_i_glide_energy>  (335) 
-25.0934

>  <r_i_glide_einternal>  (335) 
1.59574

>  <r_i_glide_intrahb_reward>  (335) 
-0

>  <i_i_glide_confnum>  (335) 
1

>  <i_i_glide_posenum>  (335) 
14

>  <r_i_glide_eff_state_penalty>  (335) 
0

>  <ligand_id>  (335) 
116

>  <original_smiles>  (335) 
CC1(C)CCC(O)C23C4C5C(O)C4C(C)(C)C(OC5(C)C)C(O)C24OC4C(O)C13

>  <smiles>  (335) 
[H]OC1([H])C2([H])C3([H])C1([H])C(C([H])([H])[H])(C([H])([H])[H])C([H])(OC2(C([H])([H])[H])C([H])([H])[H])C([H])(O[H])C12OC1([H])C([H])(O[H])C1([H])C(C([H])([H])[H])(C([H])([H])[H])C([H])([H])C([H])([H])C([H])(O[H])C312

$$$$
116:0:2
     RDKit          3D

 65 70  0  0  1  0  0  0  0  0999 V2000
    2.7862   -3.9555   -0.4632 C   0  0  0  0  0  0  0  0  0  0  0  0
    4.0361   -3.5214    0.3439 C   0  0  0  0  0  0  0  0  0  0  0  0
    5.1085   -3.1951   -0.7254 C   0  0  0  0  0  0  0  0  0  0  0  0
    3.7288   -2.2203    1.1064 C   0  0  0  0  0  0  0  0  0  0  0  0
    2.7959   -2.4591    2.2912 C   0  0  0  0  0  0  0  0  0  0  0  0
    3.3679   -3.4930    3.2734 C   0  0  1  0  0  0  0  0  0  0  0  0
    2.4507   -3.5141    4.3385 O   0  0  0  0  0  0  0  0  0  0  0  0
    3.7017   -4.9234    2.6723 C   0  0  2  0  0  0  0  0  0  0  0  0
    2.3959   -5.7049    2.3493 C   0  0  2  0  0  0  0  0  0  0  0  0
    1.2804   -6.2141    3.3132 C   0  0  1  0  0  0  0  0  0  0  0  0
    0.8554   -7.1128    2.1327 C   0  0  1  0  0  0  0  0  0  0  0  0
   -0.1040   -6.6151    1.2222 O   0  0  0  0  0  0  0  0  0  0  0  0
    2.3379   -7.0933    1.6831 C   0  0  2  0  0  0  0  0  0  0  0  0
    3.2542   -8.2266    2.1810 C   0  0  0  0  0  0  0  0  0  0  0  0
    2.5905   -9.5990    1.9083 C   0  0  0  0  0  0  0  0  0  0  0  0
    4.5810   -8.2727    1.3865 C   0  0  0  0  0  0  0  0  0  0  0  0
    3.5173   -8.0918    3.7127 C   0  0  2  0  0  0  0  0  0  0  0  0
    2.3323   -8.1071    4.5180 O   0  0  0  0  0  0  0  0  0  0  0  0
    1.5049   -6.9483    4.6604 C   0  0  0  0  0  0  0  0  0  0  0  0
    2.0008   -6.0587    5.8202 C   0  0  0  0  0  0  0  0  0  0  0  0
    0.1740   -7.5483    5.1574 C   0  0  0  0  0  0  0  0  0  0  0  0
    4.5679   -7.0691    4.2337 C   0  0  1  0  0  0  0  0  0  0  0  0
    5.8046   -7.7677    4.2480 O   0  0  0  0  0  0  0  0  0  0  0  0
    4.7605   -5.6827    3.5488 C   0  0  2  0  0  0  0  0  0  0  0  0
    5.6075   -4.7993    4.3069 O   0  0  0  0  0  0  0  0  0  0  0  0
    6.1359   -5.2701    3.0790 C   0  0  2  0  0  0  0  0  0  0  0  0
    6.0032   -4.4125    1.8593 C   0  0  1  0  0  0  0  0  0  0  0  0
    7.0081   -4.7866    0.9362 O   0  0  0  0  0  0  0  0  0  0  0  0
    4.5461   -4.6280    1.3531 C   0  0  2  0  0  0  0  0  0  0  0  0
    2.7164   -3.4345   -1.4176 H   0  0  0  0  0  0  0  0  0  0  0  0
    1.8445   -3.7390    0.0343 H   0  0  0  0  0  0  0  0  0  0  0  0
    2.8040   -5.0206   -0.6932 H   0  0  0  0  0  0  0  0  0  0  0  0
    5.9961   -2.7379   -0.2886 H   0  0  0  0  0  0  0  0  0  0  0  0
    4.7355   -2.4811   -1.4596 H   0  0  0  0  0  0  0  0  0  0  0  0
    5.4201   -4.0904   -1.2686 H   0  0  0  0  0  0  0  0  0  0  0  0
    4.6581   -1.7824    1.4732 H   0  0  0  0  0  0  0  0  0  0  0  0
    3.2995   -1.4802    0.4300 H   0  0  0  0  0  0  0  0  0  0  0  0
    2.6661   -1.5070    2.8026 H   0  0  0  0  0  0  0  0  0  0  0  0
    1.8023   -2.7441    1.9581 H   0  0  0  0  0  0  0  0  0  0  0  0
    4.2717   -3.0273    3.6643 H   0  0  0  0  0  0  0  0  0  0  0  0
    2.8400   -3.9912    5.0553 H   0  0  0  0  0  0  0  0  0  0  0  0
    1.8467   -5.0369    1.6922 H   0  0  0  0  0  0  0  0  0  0  0  0
    0.5632   -5.3994    3.4457 H   0  0  0  0  0  0  0  0  0  0  0  0
    0.5098   -8.0905    2.4611 H   0  0  0  0  0  0  0  0  0  0  0  0
   -0.3841   -7.3637    0.7147 H   0  0  0  0  0  0  0  0  0  0  0  0
    2.3845   -6.9739    0.6002 H   0  0  0  0  0  0  0  0  0  0  0  0
    3.2901  -10.4219    2.0523 H   0  0  0  0  0  0  0  0  0  0  0  0
    2.2278   -9.6622    0.8833 H   0  0  0  0  0  0  0  0  0  0  0  0
    1.7520   -9.8095    2.5699 H   0  0  0  0  0  0  0  0  0  0  0  0
    5.1634   -9.1549    1.6533 H   0  0  0  0  0  0  0  0  0  0  0  0
    5.2244   -7.4209    1.5685 H   0  0  0  0  0  0  0  0  0  0  0  0
    4.4004   -8.3210    0.3148 H   0  0  0  0  0  0  0  0  0  0  0  0
    3.9183   -9.0692    3.9898 H   0  0  0  0  0  0  0  0  0  0  0  0
    1.2685   -5.2913    6.0639 H   0  0  0  0  0  0  0  0  0  0  0  0
    2.9301   -5.5425    5.6187 H   0  0  0  0  0  0  0  0  0  0  0  0
    2.1650   -6.6501    6.7213 H   0  0  0  0  0  0  0  0  0  0  0  0
   -0.5894   -6.7792    5.2694 H   0  0  0  0  0  0  0  0  0  0  0  0
    0.3001   -8.0305    6.1272 H   0  0  0  0  0  0  0  0  0  0  0  0
   -0.2202   -8.3110    4.4875 H   0  0  0  0  0  0  0  0  0  0  0  0
    4.4190   -6.9196    5.2976 H   0  0  0  0  0  0  0  0  0  0  0  0
    6.0186   -8.0399    3.3666 H   0  0  0  0  0  0  0  0  0  0  0  0
    7.0218   -5.8878    3.1932 H   0  0  0  0  0  0  0  0  0  0  0  0
    6.1758   -3.3803    2.1603 H   0  0  0  0  0  0  0  0  0  0  0  0
    6.9518   -5.7147    0.7719 H   0  0  0  0  0  0  0  0  0  0  0  0
    4.5589   -5.5494    0.7747 H   0  0  0  0  0  0  0  0  0  0  0  0
  1  2  1  0
  1 30  1  0
  1 31  1  0
  1 32  1  0
  2 29  1  0
  2  3  1  0
  2  4  1  0
  3 33  1  0
  3 34  1  0
  3 35  1  0
  4  5  1  0
  4 36  1  0
  4 37  1  0
  5  6  1  0
  5 38  1  0
  5 39  1  0
  6  7  1  0
  6  8  1  0
  6 40  1  1
  7 41  1  0
  8 24  1  1
  8 29  1  0
  8  9  1  0
  9 13  1  0
  9 10  1  0
  9 42  1  6
 10 19  1  0
 10 11  1  0
 10 43  1  1
 11 12  1  0
 11 13  1  0
 11 44  1  1
 12 45  1  0
 13 14  1  0
 13 46  1  6
 14 15  1  0
 14 16  1  0
 14 17  1  0
 15 47  1  0
 15 48  1  0
 15 49  1  0
 16 50  1  0
 16 51  1  0
 16 52  1  0
 17 18  1  0
 17 22  1  0
 17 53  1  1
 18 19  1  0
 19 20  1  0
 19 21  1  0
 20 54  1  0
 20 55  1  0
 20 56  1  0
 21 57  1  0
 21 58  1  0
 21 59  1  0
 22 23  1  0
 22 24  1  0
 22 60  1  1
 23 61  1  0
 24 26  1  0
 24 25  1  1
 25 26  1  0
 26 27  1  0
 26 62  1  1
 27 28  1  0
 27 29  1  0
 27 63  1  1
 28 64  1  0
 29 65  1  6
M  END
>  <i_m_ct_stereo_status>  (336) 
1

>  <s_m_source_file>  (336) 
/var/tmp/pbs.5076255.sched01/tmpnpseqx1a/1202b9de7rm.sdf

>  <i_m_source_file_index>  (336) 
38

>  <i_lp_mmshare_version>  (336) 
48012

>  <i_f3d_flags>  (336) 
0

>  <s_epik_input>  (336) 
W09IXVtDQEBIXTFbQ0gyXVtDSDJdQyhbQ0gzXSkoW0NIM10pW0NASF0yW0NASF0oW09IXSlbQ0BASF0oTzMpW0NAQF0zKFtDQEBdMTI0KVtDQEhdKFtPSF0pW0NAQEhdNUMoW0NIM10pKFtDSDNdKVtDQEBIXTZbQ0BIXTRbQ0BASF0oW0NASF02W09IXSlDKE81KShbQ0gzXSlbQ0gzXQ==

>  <s_epik_cmdline>  (336) 
J2VwaWtfcHl0aG9uJywgJy1waHQnLCAnMi4wJywgJy1waCcsICc3LjAnLCAnLXRuJywgJzgnLCAnLW1hJywgJzIwMCcsICctaW1hZScsICc8aW5maWxlLm1hZT4nLCAnLW9tYWUnLCAnPG91dGZpbGUubWFlPic=

>  <r_lp_tautomer_probability>  (336) 
1

>  <r_epik_Ionization_Penalty>  (336) 
5.43467e-07

>  <r_epik_Ionization_Penalty_Charging>  (336) 
0

>  <r_epik_Ionization_Penalty_Neutral>  (336) 
5.43467e-07

>  <r_epik_State_Penalty>  (336) 
-0

>  <r_epik_Charging_Adjusted_Penalty>  (336) 
0

>  <i_epik_Tot_Q>  (336) 
0

>  <i_epik_Tot_abs_Q>  (336) 
0

>  <s_lp_Force_Field>  (336) 
OPLS3e

>  <r_lp_Energy>  (336) 
92.529

>  <b_lp_Chiralities_Consistent>  (336) 
1

>  <s_lp_Variant>  (336) 
116:0-1

>  <s_i_glide_gridfile>  (336) 
pfpi4k_grid

>  <i_i_glide_lignum>  (336) 
38

>  <i_i_glide_rotatable_bonds>  (336) 
4

>  <r_i_docking_score>  (336) 
-2.84105

>  <r_i_glide_ligand_efficiency>  (336) 
-0.0979674

>  <r_i_glide_ligand_efficiency_sa>  (336) 
-0.300987

>  <r_i_glide_ligand_efficiency_ln>  (336) 
-0.650529

>  <r_i_glide_gscore>  (336) 
-2.84105

>  <r_i_glide_lipo>  (336) 
-0.157156

>  <r_i_glide_hbond>  (336) 
-0.215454

>  <r_i_glide_metal>  (336) 
-0

>  <r_i_glide_rewards>  (336) 
-0.62367

>  <r_i_glide_evdw>  (336) 
-24.5012

>  <r_i_glide_ecoul>  (336) 
-4.13141

>  <r_i_glide_erotb>  (336) 
0

>  <r_i_glide_esite>  (336) 
0

>  <r_i_glide_emodel>  (336) 
-33.3428

>  <r_i_glide_energy>  (336) 
-28.6326

>  <r_i_glide_einternal>  (336) 
1.54876

>  <r_i_glide_intrahb_reward>  (336) 
-0

>  <i_i_glide_confnum>  (336) 
2

>  <i_i_glide_posenum>  (336) 
1

>  <r_i_glide_eff_state_penalty>  (336) 
0

>  <ligand_id>  (336) 
116

>  <original_smiles>  (336) 
CC1(C)CCC(O)C23C4C5C(O)C4C(C)(C)C(OC5(C)C)C(O)C24OC4C(O)C13

>  <smiles>  (336) 
[H]OC1([H])C2([H])C3([H])C1([H])C(C([H])([H])[H])(C([H])([H])[H])C([H])(OC2(C([H])([H])[H])C([H])([H])[H])C([H])(O[H])C12OC1([H])C([H])(O[H])C1([H])C(C([H])([H])[H])(C([H])([H])[H])C([H])([H])C([H])([H])C([H])(O[H])C312

$$$$
117:0:0
     RDKit          3D

 29 32  0  0  1  0  0  0  0  0999 V2000
    2.3663   -2.6646    2.5221 C   0  0  0  0  0  0  0  0  0  0  0  0
    3.0103   -3.1600    1.4551 C   0  0  0  0  0  0  0  0  0  0  0  0
    3.3776   -4.5326    1.2899 C   0  0  0  0  0  0  0  0  0  0  0  0
    3.8419   -4.5998    0.0231 C   0  0  0  0  0  0  0  0  0  0  0  0
    5.3619   -4.6129   -0.0387 C   0  0  0  0  0  0  0  0  0  0  0  0
    5.8312   -3.1613    0.2525 C   0  0  0  0  0  0  0  0  0  0  0  0
    6.9465   -2.9410    0.6751 O   0  0  0  0  0  0  0  0  0  0  0  0
    4.8384   -1.9996   -0.1173 C   0  0  1  0  0  0  0  0  0  0  0  0
    5.2777   -0.6513    0.4571 C   0  0  0  0  0  0  0  0  0  0  0  0
    4.8489   -1.9742   -1.6433 C   0  0  2  0  0  0  0  0  0  0  0  0
    3.6746   -1.5479   -2.4948 C   0  0  0  0  0  0  0  0  0  0  0  0
    3.8445   -2.9936   -2.0700 C   0  0  2  0  0  0  0  0  0  0  0  0
    3.1619   -3.4954   -0.8201 C   0  0  1  0  0  0  0  0  0  0  0  0
    1.8399   -3.8663   -1.1261 O   0  0  0  0  0  0  0  0  0  0  0  0
    3.3212   -2.3767    0.2038 C   0  0  1  0  0  0  0  0  0  0  0  0
    2.0804   -1.6220    2.5109 H   0  0  0  0  0  0  0  0  0  0  0  0
    2.0811   -3.3052    3.3323 H   0  0  0  0  0  0  0  0  0  0  0  0
    3.8774   -5.0509    2.0880 H   0  0  0  0  0  0  0  0  0  0  0  0
    5.7838   -5.2878    0.7084 H   0  0  0  0  0  0  0  0  0  0  0  0
    5.7331   -4.9351   -1.0057 H   0  0  0  0  0  0  0  0  0  0  0  0
    4.5926    0.1316    0.1240 H   0  0  0  0  0  0  0  0  0  0  0  0
    6.2742   -0.3735    0.1125 H   0  0  0  0  0  0  0  0  0  0  0  0
    5.2892   -0.6641    1.5511 H   0  0  0  0  0  0  0  0  0  0  0  0
    5.8285   -1.9681   -2.1315 H   0  0  0  0  0  0  0  0  0  0  0  0
    2.8895   -0.9702   -2.0131 H   0  0  0  0  0  0  0  0  0  0  0  0
    3.8591   -1.3272   -3.5372 H   0  0  0  0  0  0  0  0  0  0  0  0
    4.0942   -3.7028   -2.8512 H   0  0  0  0  0  0  0  0  0  0  0  0
    1.8847   -4.4458   -1.8749 H   0  0  0  0  0  0  0  0  0  0  0  0
    2.6316   -1.5501    0.0861 H   0  0  0  0  0  0  0  0  0  0  0  0
  1  2  2  0
  1 16  1  0
  1 17  1  0
  2 15  1  0
  2  3  1  0
  3  4  2  0
  3 18  1  0
  4 13  1  0
  4  5  1  0
  5  6  1  0
  5 19  1  0
  5 20  1  0
  6  7  2  0
  6  8  1  0
  8 15  1  0
  8  9  1  1
  8 10  1  0
  9 21  1  0
  9 22  1  0
  9 23  1  0
 10 12  1  0
 10 11  1  0
 10 24  1  6
 11 12  1  0
 11 25  1  0
 11 26  1  0
 12 13  1  0
 12 27  1  6
 13 14  1  6
 13 15  1  0
 14 28  1  0
 15 29  1  6
M  END
>  <i_m_ct_stereo_status>  (337) 
1

>  <s_m_source_file>  (337) 
/var/tmp/pbs.5076255.sched01/tmpnpseqx1a/1202b9de7rm.sdf

>  <i_m_source_file_index>  (337) 
39

>  <i_lp_mmshare_version>  (337) 
48012

>  <i_f3d_flags>  (337) 
0

>  <s_epik_input>  (337) 
W0NIMl09QyhbQ0BASF0xMilbQ0hdPUMoW0NIMl1DMz1PKVtDQF0yKFtPSF0pW0NAQEhdKFtDSDJdNClbQ0BASF00W0NAQF0xM1tDSDNd

>  <s_epik_cmdline>  (337) 
J2VwaWtfcHl0aG9uJywgJy1waHQnLCAnMi4wJywgJy1waCcsICc3LjAnLCAnLXRuJywgJzgnLCAnLW1hJywgJzIwMCcsICctaW1hZScsICc8aW5maWxlLm1hZT4nLCAnLW9tYWUnLCAnPG91dGZpbGUubWFlPic=

>  <r_lp_tautomer_probability>  (337) 
1

>  <r_epik_Ionization_Penalty>  (337) 
1.21299e-07

>  <r_epik_Ionization_Penalty_Charging>  (337) 
0

>  <r_epik_Ionization_Penalty_Neutral>  (337) 
1.21299e-07

>  <r_epik_State_Penalty>  (337) 
-0

>  <r_epik_Charging_Adjusted_Penalty>  (337) 
0

>  <i_epik_Tot_Q>  (337) 
0

>  <i_epik_Tot_abs_Q>  (337) 
0

>  <s_lp_Force_Field>  (337) 
OPLS3e

>  <r_lp_Energy>  (337) 
69.3659

>  <b_lp_Chiralities_Consistent>  (337) 
1

>  <s_lp_Variant>  (337) 
117:0-1

>  <s_i_glide_gridfile>  (337) 
pfpi4k_grid

>  <i_i_glide_lignum>  (337) 
39

>  <i_i_glide_rotatable_bonds>  (337) 
1

>  <r_i_docking_score>  (337) 
-4.05976

>  <r_i_glide_ligand_efficiency>  (337) 
-0.270651

>  <r_i_glide_ligand_efficiency_sa>  (337) 
-0.667482

>  <r_i_glide_ligand_efficiency_ln>  (337) 
-1.09485

>  <r_i_glide_gscore>  (337) 
-4.05976

>  <r_i_glide_lipo>  (337) 
-0.257667

>  <r_i_glide_hbond>  (337) 
-0.235248

>  <r_i_glide_metal>  (337) 
-0

>  <r_i_glide_rewards>  (337) 
-2.10824

>  <r_i_glide_evdw>  (337) 
-19.1613

>  <r_i_glide_ecoul>  (337) 
-3.33695

>  <r_i_glide_erotb>  (337) 
0

>  <r_i_glide_esite>  (337) 
0

>  <r_i_glide_emodel>  (337) 
-28.5844

>  <r_i_glide_energy>  (337) 
-22.4982

>  <r_i_glide_einternal>  (337) 
0.0161708

>  <r_i_glide_intrahb_reward>  (337) 
-0

>  <i_i_glide_confnum>  (337) 
1

>  <i_i_glide_posenum>  (337) 
1

>  <r_i_glide_eff_state_penalty>  (337) 
0

>  <ligand_id>  (337) 
117

>  <original_smiles>  (337) 
C=C1C=C2CC(=O)C3(C)C4CC4C2(O)C13

>  <smiles>  (337) 
[H]OC12C3=C([H])C(=C([H])[H])C1([H])C(C([H])([H])[H])(C(=O)C3([H])[H])C1([H])C([H])([H])C21[H]

$$$$
117:0:1
     RDKit          3D

 29 32  0  0  1  0  0  0  0  0999 V2000
    2.5577   -2.4060    2.5116 C   0  0  0  0  0  0  0  0  0  0  0  0
    3.0844   -3.0210    1.4545 C   0  0  0  0  0  0  0  0  0  0  0  0
    3.1408   -4.4489    1.2778 C   0  0  0  0  0  0  0  0  0  0  0  0
    3.5794   -4.6095    0.0125 C   0  0  0  0  0  0  0  0  0  0  0  0
    5.0561   -4.9530   -0.0558 C   0  0  0  0  0  0  0  0  0  0  0  0
    5.8208   -3.6296    0.2307 C   0  0  0  0  0  0  0  0  0  0  0  0
    6.9689   -3.6538    0.6575 O   0  0  0  0  0  0  0  0  0  0  0  0
    5.1078   -2.2807   -0.1264 C   0  0  1  0  0  0  0  0  0  0  0  0
    5.8263   -1.0580    0.4367 C   0  0  0  0  0  0  0  0  0  0  0  0
    5.1119   -2.2469   -1.6537 C   0  0  2  0  0  0  0  0  0  0  0  0
    4.0475   -1.5784   -2.4987 C   0  0  0  0  0  0  0  0  0  0  0  0
    3.9278   -3.0348   -2.0773 C   0  0  2  0  0  0  0  0  0  0  0  0
    3.1552   -3.3902   -0.8336 C   0  0  1  0  0  0  0  0  0  0  0  0
    1.7893   -3.4365   -1.1263 O   0  0  0  0  0  0  0  0  0  0  0  0
    3.5472   -2.3187    0.1911 C   0  0  1  0  0  0  0  0  0  0  0  0
    2.4969   -1.3214    2.5192 H   0  0  0  0  0  0  0  0  0  0  0  0
    2.1392   -2.9590    3.3328 H   0  0  0  0  0  0  0  0  0  0  0  0
    3.4967   -5.0617    2.0887 H   0  0  0  0  0  0  0  0  0  0  0  0
    5.3331   -5.7045    0.6880 H   0  0  0  0  0  0  0  0  0  0  0  0
    5.3382   -5.3412   -1.0335 H   0  0  0  0  0  0  0  0  0  0  0  0
    5.3220   -0.1422    0.1102 H   0  0  0  0  0  0  0  0  0  0  0  0
    6.8582   -0.9999    0.0980 H   0  0  0  0  0  0  0  0  0  0  0  0
    5.8372   -1.0753    1.5322 H   0  0  0  0  0  0  0  0  0  0  0  0
    6.0598   -2.4522   -2.1577 H   0  0  0  0  0  0  0  0  0  0  0  0
    3.4106   -0.8449   -2.0090 H   0  0  0  0  0  0  0  0  0  0  0  0
    4.2670   -1.3855   -3.5429 H   0  0  0  0  0  0  0  0  0  0  0  0
    3.9923   -3.7650   -2.8714 H   0  0  0  0  0  0  0  0  0  0  0  0
    1.4814   -2.5308   -1.1340 H   0  0  0  0  0  0  0  0  0  0  0  0
    3.0432   -1.3624    0.0635 H   0  0  0  0  0  0  0  0  0  0  0  0
  1  2  2  0
  1 16  1  0
  1 17  1  0
  2 15  1  0
  2  3  1  0
  3  4  2  0
  3 18  1  0
  4 13  1  0
  4  5  1  0
  5  6  1  0
  5 19  1  0
  5 20  1  0
  6  7  2  0
  6  8  1  0
  8 15  1  0
  8  9  1  1
  8 10  1  0
  9 21  1  0
  9 22  1  0
  9 23  1  0
 10 12  1  0
 10 11  1  0
 10 24  1  6
 11 12  1  0
 11 25  1  0
 11 26  1  0
 12 13  1  0
 12 27  1  6
 13 14  1  6
 13 15  1  0
 14 28  1  0
 15 29  1  6
M  END
>  <i_m_ct_stereo_status>  (338) 
1

>  <s_m_source_file>  (338) 
/var/tmp/pbs.5076255.sched01/tmpnpseqx1a/1202b9de7rm.sdf

>  <i_m_source_file_index>  (338) 
39

>  <i_lp_mmshare_version>  (338) 
48012

>  <i_f3d_flags>  (338) 
0

>  <s_epik_input>  (338) 
W0NIMl09QyhbQ0BASF0xMilbQ0hdPUMoW0NIMl1DMz1PKVtDQF0yKFtPSF0pW0NAQEhdKFtDSDJdNClbQ0BASF00W0NAQF0xM1tDSDNd

>  <s_epik_cmdline>  (338) 
J2VwaWtfcHl0aG9uJywgJy1waHQnLCAnMi4wJywgJy1waCcsICc3LjAnLCAnLXRuJywgJzgnLCAnLW1hJywgJzIwMCcsICctaW1hZScsICc8aW5maWxlLm1hZT4nLCAnLW9tYWUnLCAnPG91dGZpbGUubWFlPic=

>  <r_lp_tautomer_probability>  (338) 
1

>  <r_epik_Ionization_Penalty>  (338) 
1.21299e-07

>  <r_epik_Ionization_Penalty_Charging>  (338) 
0

>  <r_epik_Ionization_Penalty_Neutral>  (338) 
1.21299e-07

>  <r_epik_State_Penalty>  (338) 
-0

>  <r_epik_Charging_Adjusted_Penalty>  (338) 
0

>  <i_epik_Tot_Q>  (338) 
0

>  <i_epik_Tot_abs_Q>  (338) 
0

>  <s_lp_Force_Field>  (338) 
OPLS3e

>  <r_lp_Energy>  (338) 
69.3659

>  <b_lp_Chiralities_Consistent>  (338) 
1

>  <s_lp_Variant>  (338) 
117:0-1

>  <s_i_glide_gridfile>  (338) 
pfpi4k_grid

>  <i_i_glide_lignum>  (338) 
39

>  <i_i_glide_rotatable_bonds>  (338) 
1

>  <r_i_docking_score>  (338) 
-3.96289

>  <r_i_glide_ligand_efficiency>  (338) 
-0.264193

>  <r_i_glide_ligand_efficiency_sa>  (338) 
-0.651556

>  <r_i_glide_ligand_efficiency_ln>  (338) 
-1.06873

>  <r_i_glide_gscore>  (338) 
-3.96289

>  <r_i_glide_lipo>  (338) 
-0.222638

>  <r_i_glide_hbond>  (338) 
-0.198742

>  <r_i_glide_metal>  (338) 
-0

>  <r_i_glide_rewards>  (338) 
-2.12097

>  <r_i_glide_evdw>  (338) 
-18.2937

>  <r_i_glide_ecoul>  (338) 
-3.37237

>  <r_i_glide_erotb>  (338) 
0

>  <r_i_glide_esite>  (338) 
0

>  <r_i_glide_emodel>  (338) 
-27.3364

>  <r_i_glide_energy>  (338) 
-21.6661

>  <r_i_glide_einternal>  (338) 
0.203857

>  <r_i_glide_intrahb_reward>  (338) 
-0

>  <i_i_glide_confnum>  (338) 
2

>  <i_i_glide_posenum>  (338) 
20

>  <r_i_glide_eff_state_penalty>  (338) 
0

>  <ligand_id>  (338) 
117

>  <original_smiles>  (338) 
C=C1C=C2CC(=O)C3(C)C4CC4C2(O)C13

>  <smiles>  (338) 
[H]OC12C3=C([H])C(=C([H])[H])C1([H])C(C([H])([H])[H])(C(=O)C3([H])[H])C1([H])C([H])([H])C21[H]

$$$$
117:0:2
     RDKit          3D

 29 32  0  0  1  0  0  0  0  0999 V2000
    2.9421   -1.8785    1.8813 C   0  0  0  0  0  0  0  0  0  0  0  0
    3.2826   -2.6616    0.8526 C   0  0  0  0  0  0  0  0  0  0  0  0
    3.5603   -4.0647    0.9385 C   0  0  0  0  0  0  0  0  0  0  0  0
    3.6811   -4.4488   -0.3425 C   0  0  0  0  0  0  0  0  0  0  0  0
    5.1253   -4.6096   -0.7761 C   0  0  0  0  0  0  0  0  0  0  0  0
    5.6873   -3.1841   -0.9822 C   0  0  0  0  0  0  0  0  0  0  0  0
    6.8953   -2.9559   -0.9134 O   0  0  0  0  0  0  0  0  0  0  0  0
    4.6630   -2.0752   -1.3509 C   0  0  1  0  0  0  0  0  0  0  0  0
    5.2420   -0.6895   -1.2517 C   0  0  0  0  0  0  0  0  0  0  0  0
    4.2942   -2.3584   -2.7996 C   0  0  2  0  0  0  0  0  0  0  0  0
    2.9470   -2.0115   -3.4082 C   0  0  0  0  0  0  0  0  0  0  0  0
    3.1827   -3.3385   -2.7278 C   0  0  2  0  0  0  0  0  0  0  0  0
    2.8405   -3.5259   -1.2550 C   0  0  1  0  0  0  0  0  0  0  0  0
    1.4780   -3.8567   -1.1734 O   0  0  0  0  0  0  0  0  0  0  0  0
    3.2919   -2.2354   -0.5984 C   0  0  1  0  0  0  0  0  0  0  0  0
    2.6980   -0.8369    1.6958 H   0  0  0  0  0  0  0  0  0  0  0  0
    2.8628   -2.2935    2.8837 H   0  0  0  0  0  0  0  0  0  0  0  0
    4.2289   -4.4330    1.7078 H   0  0  0  0  0  0  0  0  0  0  0  0
    5.7111   -5.1482   -0.0288 H   0  0  0  0  0  0  0  0  0  0  0  0
    5.1815   -5.1572   -1.7105 H   0  0  0  0  0  0  0  0  0  0  0  0
    4.5304    0.0609   -1.6126 H   0  0  0  0  0  0  0  0  0  0  0  0
    6.1008   -0.6702   -1.9166 H   0  0  0  0  0  0  0  0  0  0  0  0
    5.5567   -0.4354   -0.2312 H   0  0  0  0  0  0  0  0  0  0  0  0
    5.1110   -2.5481   -3.5038 H   0  0  0  0  0  0  0  0  0  0  0  0
    2.3257   -1.2734   -2.8957 H   0  0  0  0  0  0  0  0  0  0  0  0
    2.8432   -2.0370   -4.4910 H   0  0  0  0  0  0  0  0  0  0  0  0
    3.1917   -4.1920   -3.3966 H   0  0  0  0  0  0  0  0  0  0  0  0
    1.2489   -4.2845   -1.9856 H   0  0  0  0  0  0  0  0  0  0  0  0
    2.6473   -1.3846   -0.7525 H   0  0  0  0  0  0  0  0  0  0  0  0
  1  2  2  0
  1 16  1  0
  1 17  1  0
  2 15  1  0
  2  3  1  0
  3  4  2  0
  3 18  1  0
  4 13  1  0
  4  5  1  0
  5  6  1  0
  5 19  1  0
  5 20  1  0
  6  7  2  0
  6  8  1  0
  8 15  1  0
  8  9  1  6
  8 10  1  0
  9 21  1  0
  9 22  1  0
  9 23  1  0
 10 12  1  0
 10 11  1  0
 10 24  1  6
 11 12  1  0
 11 25  1  0
 11 26  1  0
 12 13  1  0
 12 27  1  6
 13 14  1  6
 13 15  1  0
 14 28  1  0
 15 29  1  1
M  END
>  <i_m_ct_stereo_status>  (339) 
1

>  <s_m_source_file>  (339) 
/var/tmp/pbs.5076255.sched01/tmpnpseqx1a/1202b9de7rm.sdf

>  <i_m_source_file_index>  (339) 
39

>  <i_lp_mmshare_version>  (339) 
48012

>  <i_f3d_flags>  (339) 
0

>  <s_epik_input>  (339) 
W0NIMl09QyhbQ0BASF0xMilbQ0hdPUMoW0NIMl1DMz1PKVtDQF0yKFtPSF0pW0NAQEhdKFtDSDJdNClbQ0BASF00W0NAQF0xM1tDSDNd

>  <s_epik_cmdline>  (339) 
J2VwaWtfcHl0aG9uJywgJy1waHQnLCAnMi4wJywgJy1waCcsICc3LjAnLCAnLXRuJywgJzgnLCAnLW1hJywgJzIwMCcsICctaW1hZScsICc8aW5maWxlLm1hZT4nLCAnLW9tYWUnLCAnPG91dGZpbGUubWFlPic=

>  <r_lp_tautomer_probability>  (339) 
1

>  <r_epik_Ionization_Penalty>  (339) 
1.21299e-07

>  <r_epik_Ionization_Penalty_Charging>  (339) 
0

>  <r_epik_Ionization_Penalty_Neutral>  (339) 
1.21299e-07

>  <r_epik_State_Penalty>  (339) 
-0

>  <r_epik_Charging_Adjusted_Penalty>  (339) 
0

>  <i_epik_Tot_Q>  (339) 
0

>  <i_epik_Tot_abs_Q>  (339) 
0

>  <s_lp_Force_Field>  (339) 
OPLS3e

>  <r_lp_Energy>  (339) 
69.3659

>  <b_lp_Chiralities_Consistent>  (339) 
1

>  <s_lp_Variant>  (339) 
117:0-1

>  <s_i_glide_gridfile>  (339) 
pfpi4k_grid

>  <i_i_glide_lignum>  (339) 
39

>  <i_i_glide_rotatable_bonds>  (339) 
1

>  <r_i_docking_score>  (339) 
-3.68269

>  <r_i_glide_ligand_efficiency>  (339) 
-0.245513

>  <r_i_glide_ligand_efficiency_sa>  (339) 
-0.605486

>  <r_i_glide_ligand_efficiency_ln>  (339) 
-0.99316

>  <r_i_glide_gscore>  (339) 
-3.68269

>  <r_i_glide_lipo>  (339) 
-0.345359

>  <r_i_glide_hbond>  (339) 
-0.118446

>  <r_i_glide_metal>  (339) 
-0

>  <r_i_glide_rewards>  (339) 
-2.12111

>  <r_i_glide_evdw>  (339) 
-9.26207

>  <r_i_glide_ecoul>  (339) 
-4.23114

>  <r_i_glide_erotb>  (339) 
0

>  <r_i_glide_esite>  (339) 
0

>  <r_i_glide_emodel>  (339) 
-18.2376

>  <r_i_glide_energy>  (339) 
-13.4932

>  <r_i_glide_einternal>  (339) 
0.411593

>  <r_i_glide_intrahb_reward>  (339) 
-0

>  <i_i_glide_confnum>  (339) 
2

>  <i_i_glide_posenum>  (339) 
5

>  <r_i_glide_eff_state_penalty>  (339) 
0

>  <ligand_id>  (339) 
117

>  <original_smiles>  (339) 
C=C1C=C2CC(=O)C3(C)C4CC4C2(O)C13

>  <smiles>  (339) 
[H]OC12C3=C([H])C(=C([H])[H])C1([H])C(C([H])([H])[H])(C(=O)C3([H])[H])C1([H])C([H])([H])C21[H]

$$$$
118:0:0
     RDKit          3D

106112  0  0  1  0  0  0  0  0999 V2000
    4.1239   -0.8248    1.6930 C   0  0  0  0  0  0  0  0  0  0  0  0
    3.5049   -2.0991    2.2530 C   0  0  0  0  0  0  0  0  0  0  0  0
    3.0872   -2.9799    1.5028 O   0  0  0  0  0  0  0  0  0  0  0  0
    3.4824   -2.1279    3.6096 O   0  0  0  0  0  0  0  0  0  0  0  0
    2.9025   -3.2260    4.3242 C   0  0  2  0  0  0  0  0  0  0  0  0
    2.0762   -2.7429    5.5581 C   0  0  2  0  0  0  0  0  0  0  0  0
    1.1189   -1.4821    5.4258 C   0  0  2  0  0  0  0  0  0  0  0  0
   -0.1891   -1.7748    6.2166 C   0  0  0  0  0  0  0  0  0  0  0  0
    0.6202   -1.3793    3.9893 C   0  0  0  0  0  0  0  0  0  0  0  0
    0.5039   -0.2617    3.2579 C   0  0  0  0  0  0  0  0  0  0  0  0
    0.8623    1.0432    3.7984 C   0  0  0  0  0  0  0  0  0  0  0  0
    0.4131    2.0779    3.3020 O   0  0  0  0  0  0  0  0  0  0  0  0
    1.8596    1.1193    4.9691 C   0  0  0  0  0  0  0  0  0  0  0  0
    3.2799    1.2132    4.3643 C   0  0  0  0  0  0  0  0  0  0  0  0
    1.5901    2.4469    5.7349 C   0  0  0  0  0  0  0  0  0  0  0  0
    1.7100   -0.1018    5.9596 C   0  0  2  0  0  0  0  0  0  0  0  0
    2.8925   -0.2294    6.9636 C   0  0  0  0  0  0  0  0  0  0  0  0
    3.8125   -1.4449    6.7607 C   0  0  0  0  0  0  0  0  0  0  0  0
    3.0485   -2.7967    6.7453 C   0  0  1  0  0  0  0  0  0  0  0  0
    2.3411   -2.9836    8.1221 C   0  0  0  0  0  0  0  0  0  0  0  0
    3.9653   -4.0430    6.4056 C   0  0  1  0  0  0  0  0  0  0  0  0
    5.3572   -3.8953    7.1102 C   0  0  0  0  0  0  0  0  0  0  0  0
    3.4039   -5.3730    6.9293 C   0  0  0  0  0  0  0  0  0  0  0  0
    3.9348   -6.4020    5.9548 C   0  0  0  0  0  0  0  0  0  0  0  0
    3.6245   -5.8726    4.5272 C   0  0  2  0  0  0  0  0  0  0  0  0
    2.0923   -6.2103    4.2213 C   0  0  1  0  0  0  0  0  0  0  0  0
    1.4208   -5.7806    2.8891 C   0  0  0  0  0  0  0  0  0  0  0  0
    1.5258   -7.6016    4.6464 C   0  0  0  0  0  0  0  0  0  0  0  0
    2.3212   -8.9102    4.5583 C   0  0  2  0  0  0  0  0  0  0  0  0
    3.7349   -9.1858    4.0834 C   0  0  2  0  0  0  0  0  0  0  0  0
    4.8613   -8.1865    3.7363 C   0  0  2  0  0  0  0  0  0  0  0  0
    4.5679   -6.6553    3.4948 C   0  0  1  0  0  0  0  0  0  0  0  0
    4.4903   -6.2672    1.9829 C   0  0  0  0  0  0  0  0  0  0  0  0
    5.2628   -7.1922    1.0343 C   0  0  0  0  0  0  0  0  0  0  0  0
    6.4768   -7.8547    1.6888 C   0  0  1  0  0  0  0  0  0  0  0  0
    7.4131   -6.8532    2.0583 O   0  0  0  0  0  0  0  0  0  0  0  0
    6.0441   -8.7990    2.8582 C   0  0  0  0  0  0  0  0  0  0  0  0
    7.2690   -9.0930    3.7630 C   0  0  0  0  0  0  0  0  0  0  0  0
    5.6781  -10.1601    2.2076 C   0  0  0  0  0  0  0  0  0  0  0  0
    2.5578   -9.6835    3.2648 C   0  0  0  0  0  0  0  0  0  0  0  0
    2.2489  -11.1750    3.2764 C   0  0  0  0  0  0  0  0  0  0  0  0
    2.2190   -9.1082    1.9136 C   0  0  0  0  0  0  0  0  0  0  0  0
    3.9720   -4.2852    4.8237 C   0  0  1  0  0  0  0  0  0  0  0  0
    5.3911   -3.8838    4.3044 C   0  0  0  0  0  0  0  0  0  0  0  0
    5.0057   -0.5416    2.2685 H   0  0  0  0  0  0  0  0  0  0  0  0
    3.4034   -0.0082    1.7353 H   0  0  0  0  0  0  0  0  0  0  0  0
    4.4186   -0.9601    0.6522 H   0  0  0  0  0  0  0  0  0  0  0  0
    2.1703   -3.6596    3.6657 H   0  0  0  0  0  0  0  0  0  0  0  0
    1.3987   -3.5734    5.7312 H   0  0  0  0  0  0  0  0  0  0  0  0
   -0.0364   -1.8586    7.2895 H   0  0  0  0  0  0  0  0  0  0  0  0
   -0.6650   -2.6974    5.8810 H   0  0  0  0  0  0  0  0  0  0  0  0
   -0.9243   -0.9810    6.0654 H   0  0  0  0  0  0  0  0  0  0  0  0
    0.3171   -2.3163    3.5385 H   0  0  0  0  0  0  0  0  0  0  0  0
    0.1248   -0.2879    2.2492 H   0  0  0  0  0  0  0  0  0  0  0  0
    3.6775    0.2265    4.1548 H   0  0  0  0  0  0  0  0  0  0  0  0
    3.9863    1.7027    5.0371 H   0  0  0  0  0  0  0  0  0  0  0  0
    3.2951    1.7835    3.4311 H   0  0  0  0  0  0  0  0  0  0  0  0
    2.2500    2.5804    6.5913 H   0  0  0  0  0  0  0  0  0  0  0  0
    0.5652    2.4915    6.1073 H   0  0  0  0  0  0  0  0  0  0  0  0
    1.7270    3.3208    5.0973 H   0  0  0  0  0  0  0  0  0  0  0  0
    0.9241    0.2719    6.6171 H   0  0  0  0  0  0  0  0  0  0  0  0
    3.5107    0.6660    6.9508 H   0  0  0  0  0  0  0  0  0  0  0  0
    2.5052   -0.2228    7.9818 H   0  0  0  0  0  0  0  0  0  0  0  0
    4.3787   -1.3054    5.8425 H   0  0  0  0  0  0  0  0  0  0  0  0
    4.5502   -1.4239    7.5632 H   0  0  0  0  0  0  0  0  0  0  0  0
    3.0636   -3.1865    8.9132 H   0  0  0  0  0  0  0  0  0  0  0  0
    1.6160   -3.7952    8.1198 H   0  0  0  0  0  0  0  0  0  0  0  0
    1.7764   -2.1167    8.4486 H   0  0  0  0  0  0  0  0  0  0  0  0
    5.9970   -4.7643    6.9727 H   0  0  0  0  0  0  0  0  0  0  0  0
    5.2345   -3.7806    8.1862 H   0  0  0  0  0  0  0  0  0  0  0  0
    5.9324   -3.0360    6.7749 H   0  0  0  0  0  0  0  0  0  0  0  0
    3.7111   -5.5951    7.9514 H   0  0  0  0  0  0  0  0  0  0  0  0
    2.3174   -5.4148    6.9161 H   0  0  0  0  0  0  0  0  0  0  0  0
    5.0101   -6.4899    6.0986 H   0  0  0  0  0  0  0  0  0  0  0  0
    3.5411   -7.3811    6.2028 H   0  0  0  0  0  0  0  0  0  0  0  0
    1.5625   -5.5575    4.9078 H   0  0  0  0  0  0  0  0  0  0  0  0
    1.9730   -5.0500    2.3135 H   0  0  0  0  0  0  0  0  0  0  0  0
    0.4528   -5.3248    3.0997 H   0  0  0  0  0  0  0  0  0  0  0  0
    1.2086   -6.6110    2.2212 H   0  0  0  0  0  0  0  0  0  0  0  0
    1.2442   -7.5086    5.6960 H   0  0  0  0  0  0  0  0  0  0  0  0
    0.5698   -7.7848    4.1537 H   0  0  0  0  0  0  0  0  0  0  0  0
    2.0299   -9.5473    5.3903 H   0  0  0  0  0  0  0  0  0  0  0  0
    4.1909   -9.9884    4.6572 H   0  0  0  0  0  0  0  0  0  0  0  0
    5.3336   -8.1434    4.7143 H   0  0  0  0  0  0  0  0  0  0  0  0
    5.5584   -6.2952    3.7493 H   0  0  0  0  0  0  0  0  0  0  0  0
    3.4917   -6.2151    1.5803 H   0  0  0  0  0  0  0  0  0  0  0  0
    4.8907   -5.2687    1.8390 H   0  0  0  0  0  0  0  0  0  0  0  0
    4.5962   -7.9705    0.6666 H   0  0  0  0  0  0  0  0  0  0  0  0
    5.5618   -6.6273    0.1516 H   0  0  0  0  0  0  0  0  0  0  0  0
    6.9893   -8.4453    0.9259 H   0  0  0  0  0  0  0  0  0  0  0  0
    8.2575   -7.2653    2.1855 H   0  0  0  0  0  0  0  0  0  0  0  0
    8.1176   -9.4671    3.1910 H   0  0  0  0  0  0  0  0  0  0  0  0
    7.0295   -9.8417    4.5191 H   0  0  0  0  0  0  0  0  0  0  0  0
    7.6007   -8.1996    4.2920 H   0  0  0  0  0  0  0  0  0  0  0  0
    6.5045  -10.5592    1.6172 H   0  0  0  0  0  0  0  0  0  0  0  0
    4.8339  -10.0756    1.5278 H   0  0  0  0  0  0  0  0  0  0  0  0
    5.4324  -10.9270    2.9420 H   0  0  0  0  0  0  0  0  0  0  0  0
    2.8551  -11.6914    2.5305 H   0  0  0  0  0  0  0  0  0  0  0  0
    1.1979  -11.3570    3.0463 H   0  0  0  0  0  0  0  0  0  0  0  0
    2.4648  -11.6230    4.2474 H   0  0  0  0  0  0  0  0  0  0  0  0
    2.6568   -9.7104    1.1156 H   0  0  0  0  0  0  0  0  0  0  0  0
    2.6246   -8.1130    1.8358 H   0  0  0  0  0  0  0  0  0  0  0  0
    1.1378   -9.0731    1.7713 H   0  0  0  0  0  0  0  0  0  0  0  0
    6.1787   -4.5274    4.6919 H   0  0  0  0  0  0  0  0  0  0  0  0
    5.6599   -2.8711    4.6017 H   0  0  0  0  0  0  0  0  0  0  0  0
    5.4706   -3.8875    3.2244 H   0  0  0  0  0  0  0  0  0  0  0  0
  1  2  1  0
  1 45  1  0
  1 46  1  0
  1 47  1  0
  2  3  2  0
  2  4  1  0
  4  5  1  0
  5 43  1  0
  5  6  1  0
  5 48  1  6
  6 19  1  0
  6  7  1  0
  6 49  1  1
  7 16  1  0
  7  8  1  1
  7  9  1  0
  8 50  1  0
  8 51  1  0
  8 52  1  0
  9 10  2  0
  9 53  1  0
 10 11  1  0
 10 54  1  0
 11 12  2  0
 11 13  1  0
 13 14  1  0
 13 15  1  0
 13 16  1  0
 14 55  1  0
 14 56  1  0
 14 57  1  0
 15 58  1  0
 15 59  1  0
 15 60  1  0
 16 17  1  0
 16 61  1  1
 17 18  1  0
 17 62  1  0
 17 63  1  0
 18 19  1  0
 18 64  1  0
 18 65  1  0
 19 20  1  1
 19 21  1  0
 20 66  1  0
 20 67  1  0
 20 68  1  0
 21 43  1  0
 21 22  1  1
 21 23  1  0
 22 69  1  0
 22 70  1  0
 22 71  1  0
 23 24  1  0
 23 72  1  0
 23 73  1  0
 25 24  1  1
 24 74  1  0
 24 75  1  0
 25 32  1  0
 25 26  1  0
 25 43  1  0
 26 27  1  0
 26 28  1  0
 26 76  1  1
 27 77  1  0
 27 78  1  0
 27 79  1  0
 28 29  1  0
 28 80  1  0
 28 81  1  0
 29 40  1  0
 29 30  1  0
 29 82  1  1
 30 31  1  0
 30 40  1  0
 30 83  1  1
 31 37  1  0
 31 32  1  0
 31 84  1  1
 32 33  1  0
 32 85  1  1
 33 34  1  0
 33 86  1  0
 33 87  1  0
 34 35  1  0
 34 88  1  0
 34 89  1  0
 35 36  1  0
 35 37  1  0
 35 90  1  6
 36 91  1  0
 37 38  1  0
 37 39  1  0
 38 92  1  0
 38 93  1  0
 38 94  1  0
 39 95  1  0
 39 96  1  0
 39 97  1  0
 40 41  1  0
 40 42  1  0
 41 98  1  0
 41 99  1  0
 41100  1  0
 42101  1  0
 42102  1  0
 42103  1  0
 43 44  1  6
 44104  1  0
 44105  1  0
 44106  1  0
M  END
>  <i_m_ct_stereo_status>  (340) 
1

>  <s_m_source_file>  (340) 
/var/tmp/pbs.5076255.sched01/tmpnpseqx1a/1202b9de7rm.sdf

>  <i_m_source_file_index>  (340) 
40

>  <i_lp_mmshare_version>  (340) 
48012

>  <i_f3d_flags>  (340) 
0

>  <s_epik_input>  (340) 
W0NIXTE9W0NIXUMoPU8pQyhbQ0gzXSkoW0NIM10pW0NASF0oW0NIMl1bQ0gyXTIpW0NAXTEoW0NIM10pW0NAQEhdKFtDQEhdM09DKD1PKVtDSDNdKVtDQEBdMihbQ0gzXSlbQ0BAXShbQ0gzXSkoW0NIMl1bQ0gyXTQpW0NAQF0zKFtDSDNdKVtDQEBdNDVbQ0BIXTZbQ0BIXShDKFtDSDNdKShbQ0gzXSlbQ0BIXShbT0hdKVtDSDJdW0NIMl02KVtDQEhdN1tDQEhdKEM3KFtDSDNdKVtDSDNdKVtDSDJdW0NAQEhdNVtDSDNd

>  <s_epik_cmdline>  (340) 
J2VwaWtfcHl0aG9uJywgJy1waHQnLCAnMi4wJywgJy1waCcsICc3LjAnLCAnLXRuJywgJzgnLCAnLW1hJywgJzIwMCcsICctaW1hZScsICc8aW5maWxlLm1hZT4nLCAnLW9tYWUnLCAnPG91dGZpbGUubWFlPic=

>  <r_lp_tautomer_probability>  (340) 
1

>  <r_epik_Ionization_Penalty>  (340) 
3.00375e-06

>  <r_epik_Ionization_Penalty_Charging>  (340) 
0

>  <r_epik_Ionization_Penalty_Neutral>  (340) 
3.00375e-06

>  <r_epik_State_Penalty>  (340) 
-0

>  <r_epik_Charging_Adjusted_Penalty>  (340) 
0

>  <i_epik_Tot_Q>  (340) 
0

>  <i_epik_Tot_abs_Q>  (340) 
0

>  <s_epik_Chemistry_Notes>  (340) 
This compound has an ester and may undergo hydrolysis at high or low pH.

>  <s_lp_Force_Field>  (340) 
OPLS3e

>  <r_lp_Energy>  (340) 
170.022

>  <b_lp_Chiralities_Consistent>  (340) 
1

>  <s_lp_Variant>  (340) 
118:0-1

>  <s_i_glide_gridfile>  (340) 
pfpi4k_grid

>  <i_i_glide_lignum>  (340) 
40

>  <i_i_glide_rotatable_bonds>  (340) 
3

>  <r_i_docking_score>  (340) 
-1.96197

>  <r_i_glide_ligand_efficiency>  (340) 
-0.0445903

>  <r_i_glide_ligand_efficiency_sa>  (340) 
-0.157419

>  <r_i_glide_ligand_efficiency_ln>  (340) 
-0.410095

>  <r_i_glide_gscore>  (340) 
-1.96197

>  <r_i_glide_lipo>  (340) 
-0.398809

>  <r_i_glide_hbond>  (340) 
0

>  <r_i_glide_metal>  (340) 
-0

>  <r_i_glide_rewards>  (340) 
0

>  <r_i_glide_evdw>  (340) 
-31.8585

>  <r_i_glide_ecoul>  (340) 
-0.0733008

>  <r_i_glide_erotb>  (340) 
0.0571041

>  <r_i_glide_esite>  (340) 
-0.0163468

>  <r_i_glide_emodel>  (340) 
-35.2121

>  <r_i_glide_energy>  (340) 
-31.9318

>  <r_i_glide_einternal>  (340) 
0.522705

>  <r_i_glide_intrahb_reward>  (340) 
-0

>  <i_i_glide_confnum>  (340) 
3

>  <i_i_glide_posenum>  (340) 
18

>  <r_i_glide_eff_state_penalty>  (340) 
0

>  <ligand_id>  (340) 
118

>  <original_smiles>  (340) 
CC(=O)OC1C2C3(C)C=CC(=O)C(C)(C)C3CCC2(C)C2(C)CCC3(C(C)CC4C(C5C3CCC(O)C5(C)C)C4(C)C)C12C

>  <smiles>  (340) 
[H]OC1([H])C([H])([H])C([H])([H])C2([H])C([H])(C3([H])C([H])(C([H])([H])C([H])(C([H])([H])[H])C24C([H])([H])C([H])([H])C2(C([H])([H])[H])C5(C([H])([H])[H])C([H])([H])C([H])([H])C6([H])C(C([H])([H])[H])(C([H])([H])[H])C(=O)C([H])=C([H])C6(C([H])([H])[H])C5([H])C([H])(OC(=O)C([H])([H])[H])C42C([H])([H])[H])C3(C([H])([H])[H])C([H])([H])[H])C1(C([H])([H])[H])C([H])([H])[H]

$$$$
118:0:1
     RDKit          3D

106112  0  0  1  0  0  0  0  0999 V2000
    5.6574   -0.4425    3.0640 C   0  0  0  0  0  0  0  0  0  0  0  0
    4.7739   -1.6296    3.4222 C   0  0  0  0  0  0  0  0  0  0  0  0
    4.1158   -2.2066    2.5572 O   0  0  0  0  0  0  0  0  0  0  0  0
    4.7879   -1.9359    4.7430 O   0  0  0  0  0  0  0  0  0  0  0  0
    3.7987   -2.8007    5.3141 C   0  0  2  0  0  0  0  0  0  0  0  0
    3.3763   -2.3073    6.7329 C   0  0  2  0  0  0  0  0  0  0  0  0
    3.1680   -0.7558    7.0004 C   0  0  2  0  0  0  0  0  0  0  0  0
    1.9307   -0.5827    7.9257 C   0  0  0  0  0  0  0  0  0  0  0  0
    2.7119   -0.0794    5.7133 C   0  0  0  0  0  0  0  0  0  0  0  0
    3.1248    1.1074    5.2401 C   0  0  0  0  0  0  0  0  0  0  0  0
    4.1221    1.9090    5.9453 C   0  0  0  0  0  0  0  0  0  0  0  0
    4.2433    3.1121    5.7182 O   0  0  0  0  0  0  0  0  0  0  0  0
    5.0805    1.2111    6.9350 C   0  0  0  0  0  0  0  0  0  0  0  0
    6.3333    0.7684    6.1479 C   0  0  0  0  0  0  0  0  0  0  0  0
    5.5446    2.2711    7.9765 C   0  0  0  0  0  0  0  0  0  0  0  0
    4.3921    0.0043    7.6834 C   0  0  2  0  0  0  0  0  0  0  0  0
    5.4003   -0.9114    8.4383 C   0  0  0  0  0  0  0  0  0  0  0  0
    5.5845   -2.3249    7.8625 C   0  0  0  0  0  0  0  0  0  0  0  0
    4.2501   -3.1044    7.7138 C   0  0  1  0  0  0  0  0  0  0  0  0
    3.6118   -3.2691    9.1264 C   0  0  0  0  0  0  0  0  0  0  0  0
    4.4091   -4.5081    6.9985 C   0  0  1  0  0  0  0  0  0  0  0  0
    5.7208   -5.2154    7.4815 C   0  0  0  0  0  0  0  0  0  0  0  0
    3.2873   -5.4988    7.3408 C   0  0  0  0  0  0  0  0  0  0  0  0
    3.1879   -6.3791    6.1148 C   0  0  0  0  0  0  0  0  0  0  0  0
    3.1156   -5.4318    4.8867 C   0  0  2  0  0  0  0  0  0  0  0  0
    1.6102   -4.9149    4.7823 C   0  0  1  0  0  0  0  0  0  0  0  0
    1.1942   -3.9019    3.6849 C   0  0  0  0  0  0  0  0  0  0  0  0
    0.4435   -5.9305    5.0113 C   0  0  0  0  0  0  0  0  0  0  0  0
    0.4717   -7.3912    4.5421 C   0  0  2  0  0  0  0  0  0  0  0  0
    1.5400   -8.1748    3.8044 C   0  0  2  0  0  0  0  0  0  0  0  0
    2.9949   -7.7753    3.4794 C   0  0  2  0  0  0  0  0  0  0  0  0
    3.4911   -6.2823    3.5811 C   0  0  1  0  0  0  0  0  0  0  0  0
    3.5501   -5.5481    2.2004 C   0  0  0  0  0  0  0  0  0  0  0  0
    3.7171   -6.4594    0.9748 C   0  0  0  0  0  0  0  0  0  0  0  0
    4.4617   -7.7571    1.2907 C   0  0  1  0  0  0  0  0  0  0  0  0
    5.7839   -7.4402    1.6983 O   0  0  0  0  0  0  0  0  0  0  0  0
    3.6691   -8.6318    2.3187 C   0  0  0  0  0  0  0  0  0  0  0  0
    4.6269   -9.6878    2.9303 C   0  0  0  0  0  0  0  0  0  0  0  0
    2.6366   -9.4440    1.4969 C   0  0  0  0  0  0  0  0  0  0  0  0
    0.2340   -7.8402    3.1027 C   0  0  0  0  0  0  0  0  0  0  0  0
   -0.7794   -8.9525    2.8788 C   0  0  0  0  0  0  0  0  0  0  0  0
    0.1696   -6.8683    1.9557 C   0  0  0  0  0  0  0  0  0  0  0  0
    4.2213   -4.3253    5.4195 C   0  0  1  0  0  0  0  0  0  0  0  0
    5.6221   -4.5292    4.7668 C   0  0  0  0  0  0  0  0  0  0  0  0
    6.6085   -0.4857    3.5893 H   0  0  0  0  0  0  0  0  0  0  0  0
    5.1635    0.4836    3.3531 H   0  0  0  0  0  0  0  0  0  0  0  0
    5.8678   -0.4072    1.9964 H   0  0  0  0  0  0  0  0  0  0  0  0
    2.9210   -2.6599    4.7134 H   0  0  0  0  0  0  0  0  0  0  0  0
    2.3847   -2.7345    6.8515 H   0  0  0  0  0  0  0  0  0  0  0  0
    2.0740   -0.9889    8.9232 H   0  0  0  0  0  0  0  0  0  0  0  0
    1.0440   -1.0568    7.5032 H   0  0  0  0  0  0  0  0  0  0  0  0
    1.6812    0.4736    8.0534 H   0  0  0  0  0  0  0  0  0  0  0  0
    1.9648   -0.6200    5.1452 H   0  0  0  0  0  0  0  0  0  0  0  0
    2.7232    1.5100    4.3240 H   0  0  0  0  0  0  0  0  0  0  0  0
    6.1785   -0.2127    5.7151 H   0  0  0  0  0  0  0  0  0  0  0  0
    7.2217    0.6955    6.7786 H   0  0  0  0  0  0  0  0  0  0  0  0
    6.5805    1.4608    5.3412 H   0  0  0  0  0  0  0  0  0  0  0  0
    6.2233    1.8589    8.7237 H   0  0  0  0  0  0  0  0  0  0  0  0
    4.6978    2.7034    8.5127 H   0  0  0  0  0  0  0  0  0  0  0  0
    6.0729    3.1009    7.5057 H   0  0  0  0  0  0  0  0  0  0  0  0
    3.9264    0.5285    8.5197 H   0  0  0  0  0  0  0  0  0  0  0  0
    6.3821   -0.4464    8.4949 H   0  0  0  0  0  0  0  0  0  0  0  0
    5.1179   -0.9700    9.4886 H   0  0  0  0  0  0  0  0  0  0  0  0
    6.1003   -2.2462    6.9082 H   0  0  0  0  0  0  0  0  0  0  0  0
    6.2732   -2.8536    8.5229 H   0  0  0  0  0  0  0  0  0  0  0  0
    4.1786   -3.9761    9.7340 H   0  0  0  0  0  0  0  0  0  0  0  0
    2.5806   -3.6142    9.0860 H   0  0  0  0  0  0  0  0  0  0  0  0
    3.5691   -2.3478    9.6980 H   0  0  0  0  0  0  0  0  0  0  0  0
    5.8366   -6.2179    7.0755 H   0  0  0  0  0  0  0  0  0  0  0  0
    5.7218   -5.3249    8.5640 H   0  0  0  0  0  0  0  0  0  0  0  0
    6.6304   -4.6763    7.2292 H   0  0  0  0  0  0  0  0  0  0  0  0
    3.4915   -6.0832    8.2368 H   0  0  0  0  0  0  0  0  0  0  0  0
    2.3253   -5.0176    7.4990 H   0  0  0  0  0  0  0  0  0  0  0  0
    4.0820   -6.9978    6.0637 H   0  0  0  0  0  0  0  0  0  0  0  0
    2.3732   -7.0844    6.2321 H   0  0  0  0  0  0  0  0  0  0  0  0
    1.5049   -4.2851    5.6600 H   0  0  0  0  0  0  0  0  0  0  0  0
    2.0073   -3.3929    3.1840 H   0  0  0  0  0  0  0  0  0  0  0  0
    0.5636   -3.1209    4.1169 H   0  0  0  0  0  0  0  0  0  0  0  0
    0.6104   -4.3593    2.8976 H   0  0  0  0  0  0  0  0  0  0  0  0
    0.2953   -5.9826    6.0916 H   0  0  0  0  0  0  0  0  0  0  0  0
   -0.4978   -5.5083    4.6580 H   0  0  0  0  0  0  0  0  0  0  0  0
   -0.0519   -7.9999    5.2762 H   0  0  0  0  0  0  0  0  0  0  0  0
    1.5645   -9.2108    4.1307 H   0  0  0  0  0  0  0  0  0  0  0  0
    3.4750   -8.2050    4.3549 H   0  0  0  0  0  0  0  0  0  0  0  0
    4.5385   -6.5086    3.7434 H   0  0  0  0  0  0  0  0  0  0  0  0
    2.6902   -4.9336    1.9872 H   0  0  0  0  0  0  0  0  0  0  0  0
    4.3869   -4.8561    2.1898 H   0  0  0  0  0  0  0  0  0  0  0  0
    2.7333   -6.7028    0.5771 H   0  0  0  0  0  0  0  0  0  0  0  0
    4.2220   -5.9158    0.1764 H   0  0  0  0  0  0  0  0  0  0  0  0
    4.5822   -8.3156    0.3591 H   0  0  0  0  0  0  0  0  0  0  0  0
    5.7358   -6.9766    2.5173 H   0  0  0  0  0  0  0  0  0  0  0  0
    5.1398  -10.2614    2.1554 H   0  0  0  0  0  0  0  0  0  0  0  0
    4.0842  -10.3982    3.5557 H   0  0  0  0  0  0  0  0  0  0  0  0
    5.3912   -9.2260    3.5568 H   0  0  0  0  0  0  0  0  0  0  0  0
    3.1314  -10.0126    0.7098 H   0  0  0  0  0  0  0  0  0  0  0  0
    1.9145   -8.8078    0.9936 H   0  0  0  0  0  0  0  0  0  0  0  0
    2.0885  -10.1696    2.0992 H   0  0  0  0  0  0  0  0  0  0  0  0
   -0.5467   -9.4969    1.9652 H   0  0  0  0  0  0  0  0  0  0  0  0
   -1.7912   -8.5526    2.7968 H   0  0  0  0  0  0  0  0  0  0  0  0
   -0.7611   -9.6724    3.6978 H   0  0  0  0  0  0  0  0  0  0  0  0
    0.2113   -7.3952    1.0008 H   0  0  0  0  0  0  0  0  0  0  0  0
    1.0139   -6.1989    2.0086 H   0  0  0  0  0  0  0  0  0  0  0  0
   -0.7583   -6.3012    1.9962 H   0  0  0  0  0  0  0  0  0  0  0  0
    6.0081   -5.5400    4.8891 H   0  0  0  0  0  0  0  0  0  0  0  0
    6.3591   -3.8702    5.2212 H   0  0  0  0  0  0  0  0  0  0  0  0
    5.6427   -4.3008    3.7088 H   0  0  0  0  0  0  0  0  0  0  0  0
  1  2  1  0
  1 45  1  0
  1 46  1  0
  1 47  1  0
  2  3  2  0
  2  4  1  0
  4  5  1  0
  5 43  1  0
  5  6  1  0
  5 48  1  6
  6 19  1  0
  6  7  1  0
  6 49  1  1
  7 16  1  0
  7  8  1  1
  7  9  1  0
  8 50  1  0
  8 51  1  0
  8 52  1  0
  9 10  2  0
  9 53  1  0
 10 11  1  0
 10 54  1  0
 11 12  2  0
 11 13  1  0
 13 14  1  0
 13 15  1  0
 13 16  1  0
 14 55  1  0
 14 56  1  0
 14 57  1  0
 15 58  1  0
 15 59  1  0
 15 60  1  0
 16 17  1  0
 16 61  1  1
 17 18  1  0
 17 62  1  0
 17 63  1  0
 18 19  1  0
 18 64  1  0
 18 65  1  0
 19 20  1  1
 19 21  1  0
 20 66  1  0
 20 67  1  0
 20 68  1  0
 21 43  1  0
 21 22  1  6
 21 23  1  0
 22 69  1  0
 22 70  1  0
 22 71  1  0
 23 24  1  0
 23 72  1  0
 23 73  1  0
 25 24  1  1
 24 74  1  0
 24 75  1  0
 25 32  1  0
 25 26  1  0
 25 43  1  0
 26 27  1  0
 26 28  1  0
 26 76  1  1
 27 77  1  0
 27 78  1  0
 27 79  1  0
 28 29  1  0
 28 80  1  0
 28 81  1  0
 29 40  1  0
 29 30  1  0
 29 82  1  1
 30 31  1  0
 30 40  1  0
 30 83  1  1
 31 37  1  0
 31 32  1  0
 31 84  1  1
 32 33  1  0
 32 85  1  1
 33 34  1  0
 33 86  1  0
 33 87  1  0
 34 35  1  0
 34 88  1  0
 34 89  1  0
 35 36  1  0
 35 37  1  0
 35 90  1  6
 36 91  1  0
 37 38  1  0
 37 39  1  0
 38 92  1  0
 38 93  1  0
 38 94  1  0
 39 95  1  0
 39 96  1  0
 39 97  1  0
 40 41  1  0
 40 42  1  0
 41 98  1  0
 41 99  1  0
 41100  1  0
 42101  1  0
 42102  1  0
 42103  1  0
 43 44  1  6
 44104  1  0
 44105  1  0
 44106  1  0
M  END
>  <i_m_ct_stereo_status>  (341) 
1

>  <s_m_source_file>  (341) 
/var/tmp/pbs.5076255.sched01/tmpnpseqx1a/1202b9de7rm.sdf

>  <i_m_source_file_index>  (341) 
40

>  <i_lp_mmshare_version>  (341) 
48012

>  <i_f3d_flags>  (341) 
0

>  <s_epik_input>  (341) 
W0NIXTE9W0NIXUMoPU8pQyhbQ0gzXSkoW0NIM10pW0NASF0oW0NIMl1bQ0gyXTIpW0NAXTEoW0NIM10pW0NAQEhdKFtDQEhdM09DKD1PKVtDSDNdKVtDQEBdMihbQ0gzXSlbQ0BAXShbQ0gzXSkoW0NIMl1bQ0gyXTQpW0NAQF0zKFtDSDNdKVtDQEBdNDVbQ0BIXTZbQ0BIXShDKFtDSDNdKShbQ0gzXSlbQ0BIXShbT0hdKVtDSDJdW0NIMl02KVtDQEhdN1tDQEhdKEM3KFtDSDNdKVtDSDNdKVtDSDJdW0NAQEhdNVtDSDNd

>  <s_epik_cmdline>  (341) 
J2VwaWtfcHl0aG9uJywgJy1waHQnLCAnMi4wJywgJy1waCcsICc3LjAnLCAnLXRuJywgJzgnLCAnLW1hJywgJzIwMCcsICctaW1hZScsICc8aW5maWxlLm1hZT4nLCAnLW9tYWUnLCAnPG91dGZpbGUubWFlPic=

>  <r_lp_tautomer_probability>  (341) 
1

>  <r_epik_Ionization_Penalty>  (341) 
3.00375e-06

>  <r_epik_Ionization_Penalty_Charging>  (341) 
0

>  <r_epik_Ionization_Penalty_Neutral>  (341) 
3.00375e-06

>  <r_epik_State_Penalty>  (341) 
-0

>  <r_epik_Charging_Adjusted_Penalty>  (341) 
0

>  <i_epik_Tot_Q>  (341) 
0

>  <i_epik_Tot_abs_Q>  (341) 
0

>  <s_epik_Chemistry_Notes>  (341) 
This compound has an ester and may undergo hydrolysis at high or low pH.

>  <s_lp_Force_Field>  (341) 
OPLS3e

>  <r_lp_Energy>  (341) 
170.022

>  <b_lp_Chiralities_Consistent>  (341) 
1

>  <s_lp_Variant>  (341) 
118:0-1

>  <s_i_glide_gridfile>  (341) 
pfpi4k_grid

>  <i_i_glide_lignum>  (341) 
40

>  <i_i_glide_rotatable_bonds>  (341) 
3

>  <r_i_docking_score>  (341) 
-1.88311

>  <r_i_glide_ligand_efficiency>  (341) 
-0.0427979

>  <r_i_glide_ligand_efficiency_sa>  (341) 
-0.151092

>  <r_i_glide_ligand_efficiency_ln>  (341) 
-0.393611

>  <r_i_glide_gscore>  (341) 
-1.88311

>  <r_i_glide_lipo>  (341) 
-0.347763

>  <r_i_glide_hbond>  (341) 
0

>  <r_i_glide_metal>  (341) 
-0

>  <r_i_glide_rewards>  (341) 
-0.0753613

>  <r_i_glide_evdw>  (341) 
-29.9752

>  <r_i_glide_ecoul>  (341) 
-0.122194

>  <r_i_glide_erotb>  (341) 
0.0571041

>  <r_i_glide_esite>  (341) 
0

>  <r_i_glide_emodel>  (341) 
-32.8006

>  <r_i_glide_energy>  (341) 
-30.0974

>  <r_i_glide_einternal>  (341) 
1.02921

>  <r_i_glide_intrahb_reward>  (341) 
-0

>  <i_i_glide_confnum>  (341) 
1

>  <i_i_glide_posenum>  (341) 
23

>  <r_i_glide_eff_state_penalty>  (341) 
0

>  <ligand_id>  (341) 
118

>  <original_smiles>  (341) 
CC(=O)OC1C2C3(C)C=CC(=O)C(C)(C)C3CCC2(C)C2(C)CCC3(C(C)CC4C(C5C3CCC(O)C5(C)C)C4(C)C)C12C

>  <smiles>  (341) 
[H]OC1([H])C([H])([H])C([H])([H])C2([H])C([H])(C3([H])C([H])(C([H])([H])C([H])(C([H])([H])[H])C24C([H])([H])C([H])([H])C2(C([H])([H])[H])C5(C([H])([H])[H])C([H])([H])C([H])([H])C6([H])C(C([H])([H])[H])(C([H])([H])[H])C(=O)C([H])=C([H])C6(C([H])([H])[H])C5([H])C([H])(OC(=O)C([H])([H])[H])C42C([H])([H])[H])C3(C([H])([H])[H])C([H])([H])[H])C1(C([H])([H])[H])C([H])([H])[H]

$$$$
118:0:2
     RDKit          3D

106112  0  0  1  0  0  0  0  0999 V2000
    4.5624   -1.9783    1.1669 C   0  0  0  0  0  0  0  0  0  0  0  0
    3.7011   -3.0018    1.8939 C   0  0  0  0  0  0  0  0  0  0  0  0
    3.0732   -3.8575    1.2675 O   0  0  0  0  0  0  0  0  0  0  0  0
    3.7118   -2.8470    3.2409 O   0  0  0  0  0  0  0  0  0  0  0  0
    2.9421   -3.6981    4.0996 C   0  0  2  0  0  0  0  0  0  0  0  0
    2.2007   -2.8881    5.2091 C   0  0  2  0  0  0  0  0  0  0  0  0
    1.4732   -1.5258    4.8446 C   0  0  2  0  0  0  0  0  0  0  0  0
    0.1258   -1.4627    5.6199 C   0  0  0  0  0  0  0  0  0  0  0  0
    1.0165   -1.5768    3.3918 C   0  0  0  0  0  0  0  0  0  0  0  0
    1.0917   -0.5851    2.4889 C   0  0  0  0  0  0  0  0  0  0  0  0
    1.6665    0.7109    2.8229 C   0  0  0  0  0  0  0  0  0  0  0  0
    1.4388    1.7033    2.1359 O   0  0  0  0  0  0  0  0  0  0  0  0
    2.6461    0.8018    4.0127 C   0  0  0  0  0  0  0  0  0  0  0  0
    4.0607    0.5417    3.4638 C   0  0  0  0  0  0  0  0  0  0  0  0
    2.6057    2.2652    4.5436 C   0  0  0  0  0  0  0  0  0  0  0  0
    2.2786   -0.1931    5.1778 C   0  0  2  0  0  0  0  0  0  0  0  0
    3.4158   -0.3527    6.2288 C   0  0  0  0  0  0  0  0  0  0  0  0
    4.1182   -1.7197    6.2562 C   0  0  0  0  0  0  0  0  0  0  0  0
    3.1377   -2.9098    6.4262 C   0  0  1  0  0  0  0  0  0  0  0  0
    2.3962   -2.7504    7.7881 C   0  0  0  0  0  0  0  0  0  0  0  0
    3.8312   -4.3300    6.3201 C   0  0  1  0  0  0  0  0  0  0  0  0
    5.2201   -4.3047    7.0444 C   0  0  0  0  0  0  0  0  0  0  0  0
    3.0472   -5.4453    7.0259 C   0  0  0  0  0  0  0  0  0  0  0  0
    3.4032   -6.6909    6.2468 C   0  0  0  0  0  0  0  0  0  0  0  0
    3.2036   -6.3574    4.7435 C   0  0  2  0  0  0  0  0  0  0  0  0
    1.6398   -6.4804    4.4403 C   0  0  1  0  0  0  0  0  0  0  0  0
    1.0709   -6.1675    3.0312 C   0  0  0  0  0  0  0  0  0  0  0  0
    0.8382   -7.6678    5.0595 C   0  0  0  0  0  0  0  0  0  0  0  0
    1.3970   -9.0882    5.2086 C   0  0  2  0  0  0  0  0  0  0  0  0
    2.7513   -9.6647    4.8356 C   0  0  2  0  0  0  0  0  0  0  0  0
    4.0339   -8.9385    4.3786 C   0  0  2  0  0  0  0  0  0  0  0  0
    4.0086   -7.4431    3.8806 C   0  0  1  0  0  0  0  0  0  0  0  0
    4.0160   -7.3023    2.3216 C   0  0  0  0  0  0  0  0  0  0  0  0
    4.6285   -8.4877    1.5582 C   0  0  0  0  0  0  0  0  0  0  0  0
    5.6972   -9.2253    2.3631 C   0  0  1  0  0  0  0  0  0  0  0  0
    6.7740   -8.3343    2.6140 O   0  0  0  0  0  0  0  0  0  0  0  0
    5.0988   -9.8761    3.6535 C   0  0  0  0  0  0  0  0  0  0  0  0
    6.2497  -10.2203    4.6341 C   0  0  0  0  0  0  0  0  0  0  0  0
    4.5086  -11.2447    3.2265 C   0  0  0  0  0  0  0  0  0  0  0  0
    1.5172  -10.0798    4.0570 C   0  0  0  0  0  0  0  0  0  0  0  0
    0.9678  -11.4785    4.2705 C   0  0  0  0  0  0  0  0  0  0  0  0
    1.2890   -9.6723    2.6298 C   0  0  0  0  0  0  0  0  0  0  0  0
    3.8139   -4.8222    4.7969 C   0  0  1  0  0  0  0  0  0  0  0  0
    5.2854   -4.7496    4.2710 C   0  0  0  0  0  0  0  0  0  0  0  0
    5.5003   -1.8160    1.6985 H   0  0  0  0  0  0  0  0  0  0  0  0
    4.0323   -1.0288    1.0964 H   0  0  0  0  0  0  0  0  0  0  0  0
    4.7896   -2.3114    0.1545 H   0  0  0  0  0  0  0  0  0  0  0  0
    2.1518   -4.1044    3.4957 H   0  0  0  0  0  0  0  0  0  0  0  0
    1.3880   -3.5539    5.4867 H   0  0  0  0  0  0  0  0  0  0  0  0
    0.2508   -1.3944    6.6976 H   0  0  0  0  0  0  0  0  0  0  0  0
   -0.4969   -2.3359    5.4182 H   0  0  0  0  0  0  0  0  0  0  0  0
   -0.4623   -0.5925    5.3197 H   0  0  0  0  0  0  0  0  0  0  0  0
    0.5668   -2.5091    3.0834 H   0  0  0  0  0  0  0  0  0  0  0  0
    0.7129   -0.7125    1.4876 H   0  0  0  0  0  0  0  0  0  0  0  0
    4.2917   -0.5165    3.4334 H   0  0  0  0  0  0  0  0  0  0  0  0
    4.8339    1.0175    4.0697 H   0  0  0  0  0  0  0  0  0  0  0  0
    4.1712    0.9360    2.4523 H   0  0  0  0  0  0  0  0  0  0  0  0
    3.2697    2.4252    5.3931 H   0  0  0  0  0  0  0  0  0  0  0  0
    1.6009    2.5462    4.8622 H   0  0  0  0  0  0  0  0  0  0  0  0
    2.9021    2.9872    3.7804 H   0  0  0  0  0  0  0  0  0  0  0  0
    1.5606    0.4096    5.7357 H   0  0  0  0  0  0  0  0  0  0  0  0
    4.1796    0.4106    6.0969 H   0  0  0  0  0  0  0  0  0  0  0  0
    3.0269   -0.1130    7.2177 H   0  0  0  0  0  0  0  0  0  0  0  0
    4.7093   -1.8269    5.3484 H   0  0  0  0  0  0  0  0  0  0  0  0
    4.8423   -1.6924    7.0716 H   0  0  0  0  0  0  0  0  0  0  0  0
    3.0686   -2.9384    8.6260 H   0  0  0  0  0  0  0  0  0  0  0  0
    1.5447   -3.4205    7.8868 H   0  0  0  0  0  0  0  0  0  0  0  0
    1.9836   -1.7596    7.9507 H   0  0  0  0  0  0  0  0  0  0  0  0
    5.7032   -5.2791    7.0677 H   0  0  0  0  0  0  0  0  0  0  0  0
    5.1076   -3.9988    8.0831 H   0  0  0  0  0  0  0  0  0  0  0  0
    5.9365   -3.6185    6.5994 H   0  0  0  0  0  0  0  0  0  0  0  0
    3.3013   -5.5464    8.0804 H   0  0  0  0  0  0  0  0  0  0  0  0
    1.9694   -5.3058    6.9804 H   0  0  0  0  0  0  0  0  0  0  0  0
    4.4461   -6.9336    6.4440 H   0  0  0  0  0  0  0  0  0  0  0  0
    2.8473   -7.5384    6.6324 H   0  0  0  0  0  0  0  0  0  0  0  0
    1.2208   -5.6458    4.9925 H   0  0  0  0  0  0  0  0  0  0  0  0
    1.7491   -5.6474    2.3682 H   0  0  0  0  0  0  0  0  0  0  0  0
    0.2048   -5.5170    3.1341 H   0  0  0  0  0  0  0  0  0  0  0  0
    0.7154   -7.0446    2.4968 H   0  0  0  0  0  0  0  0  0  0  0  0
    0.5646   -7.3604    6.0708 H   0  0  0  0  0  0  0  0  0  0  0  0
   -0.1300   -7.7668    4.5652 H   0  0  0  0  0  0  0  0  0  0  0  0
    0.9927   -9.5289    6.1174 H   0  0  0  0  0  0  0  0  0  0  0  0
    3.0557  -10.4308    5.5425 H   0  0  0  0  0  0  0  0  0  0  0  0
    4.4988   -8.8162    5.3530 H   0  0  0  0  0  0  0  0  0  0  0  0
    5.0431   -7.2127    4.1135 H   0  0  0  0  0  0  0  0  0  0  0  0
    3.0439   -7.1535    1.8809 H   0  0  0  0  0  0  0  0  0  0  0  0
    4.5770   -6.4176    2.0371 H   0  0  0  0  0  0  0  0  0  0  0  0
    3.8449   -9.1956    1.2915 H   0  0  0  0  0  0  0  0  0  0  0  0
    5.0378   -8.1371    0.6109 H   0  0  0  0  0  0  0  0  0  0  0  0
    6.1159  -10.0078    1.7242 H   0  0  0  0  0  0  0  0  0  0  0  0
    7.4888   -8.8281    2.9808 H   0  0  0  0  0  0  0  0  0  0  0  0
    7.0235  -10.8230    4.1539 H   0  0  0  0  0  0  0  0  0  0  0  0
    5.8785  -10.7876    5.4889 H   0  0  0  0  0  0  0  0  0  0  0  0
    6.7267   -9.3225    5.0295 H   0  0  0  0  0  0  0  0  0  0  0  0
    5.2611  -11.8642    2.7328 H   0  0  0  0  0  0  0  0  0  0  0  0
    3.7021  -11.1314    2.5050 H   0  0  0  0  0  0  0  0  0  0  0  0
    4.1337  -11.8317    4.0648 H   0  0  0  0  0  0  0  0  0  0  0  0
    1.4752  -12.2025    3.6310 H   0  0  0  0  0  0  0  0  0  0  0  0
   -0.1012  -11.5056    4.0597 H   0  0  0  0  0  0  0  0  0  0  0  0
    1.1039  -11.7987    5.3007 H   0  0  0  0  0  0  0  0  0  0  0  0
    1.6384  -10.4579    1.9662 H   0  0  0  0  0  0  0  0  0  0  0  0
    1.8592   -8.7861    2.4089 H   0  0  0  0  0  0  0  0  0  0  0  0
    0.2275   -9.4947    2.4413 H   0  0  0  0  0  0  0  0  0  0  0  0
    5.9514   -5.4432    4.7816 H   0  0  0  0  0  0  0  0  0  0  0  0
    5.7207   -3.7612    4.4166 H   0  0  0  0  0  0  0  0  0  0  0  0
    5.3705   -4.9398    3.2085 H   0  0  0  0  0  0  0  0  0  0  0  0
  1  2  1  0
  1 45  1  0
  1 46  1  0
  1 47  1  0
  2  3  2  0
  2  4  1  0
  4  5  1  0
  5 43  1  0
  5  6  1  0
  5 48  1  6
  6 19  1  0
  6  7  1  0
  6 49  1  1
  7 16  1  0
  7  8  1  1
  7  9  1  0
  8 50  1  0
  8 51  1  0
  8 52  1  0
  9 10  2  0
  9 53  1  0
 10 11  1  0
 10 54  1  0
 11 12  2  0
 11 13  1  0
 13 14  1  0
 13 15  1  0
 13 16  1  0
 14 55  1  0
 14 56  1  0
 14 57  1  0
 15 58  1  0
 15 59  1  0
 15 60  1  0
 16 17  1  0
 16 61  1  1
 17 18  1  0
 17 62  1  0
 17 63  1  0
 18 19  1  0
 18 64  1  0
 18 65  1  0
 19 20  1  1
 19 21  1  0
 20 66  1  0
 20 67  1  0
 20 68  1  0
 21 43  1  0
 21 22  1  1
 21 23  1  0
 22 69  1  0
 22 70  1  0
 22 71  1  0
 23 24  1  0
 23 72  1  0
 23 73  1  0
 25 24  1  1
 24 74  1  0
 24 75  1  0
 25 32  1  0
 25 26  1  0
 25 43  1  0
 26 27  1  0
 26 28  1  0
 26 76  1  1
 27 77  1  0
 27 78  1  0
 27 79  1  0
 28 29  1  0
 28 80  1  0
 28 81  1  0
 29 40  1  0
 29 30  1  0
 29 82  1  1
 30 31  1  0
 30 40  1  0
 30 83  1  1
 31 37  1  0
 31 32  1  0
 31 84  1  1
 32 33  1  0
 32 85  1  1
 33 34  1  0
 33 86  1  0
 33 87  1  0
 34 35  1  0
 34 88  1  0
 34 89  1  0
 35 36  1  0
 35 37  1  0
 35 90  1  6
 36 91  1  0
 37 38  1  0
 37 39  1  0
 38 92  1  0
 38 93  1  0
 38 94  1  0
 39 95  1  0
 39 96  1  0
 39 97  1  0
 40 41  1  0
 40 42  1  0
 41 98  1  0
 41 99  1  0
 41100  1  0
 42101  1  0
 42102  1  0
 42103  1  0
 43 44  1  6
 44104  1  0
 44105  1  0
 44106  1  0
M  END
>  <i_m_ct_stereo_status>  (342) 
1

>  <s_m_source_file>  (342) 
/var/tmp/pbs.5076255.sched01/tmpnpseqx1a/1202b9de7rm.sdf

>  <i_m_source_file_index>  (342) 
40

>  <i_lp_mmshare_version>  (342) 
48012

>  <i_f3d_flags>  (342) 
0

>  <s_epik_input>  (342) 
W0NIXTE9W0NIXUMoPU8pQyhbQ0gzXSkoW0NIM10pW0NASF0oW0NIMl1bQ0gyXTIpW0NAXTEoW0NIM10pW0NAQEhdKFtDQEhdM09DKD1PKVtDSDNdKVtDQEBdMihbQ0gzXSlbQ0BAXShbQ0gzXSkoW0NIMl1bQ0gyXTQpW0NAQF0zKFtDSDNdKVtDQEBdNDVbQ0BIXTZbQ0BIXShDKFtDSDNdKShbQ0gzXSlbQ0BIXShbT0hdKVtDSDJdW0NIMl02KVtDQEhdN1tDQEhdKEM3KFtDSDNdKVtDSDNdKVtDSDJdW0NAQEhdNVtDSDNd

>  <s_epik_cmdline>  (342) 
J2VwaWtfcHl0aG9uJywgJy1waHQnLCAnMi4wJywgJy1waCcsICc3LjAnLCAnLXRuJywgJzgnLCAnLW1hJywgJzIwMCcsICctaW1hZScsICc8aW5maWxlLm1hZT4nLCAnLW9tYWUnLCAnPG91dGZpbGUubWFlPic=

>  <r_lp_tautomer_probability>  (342) 
1

>  <r_epik_Ionization_Penalty>  (342) 
3.00375e-06

>  <r_epik_Ionization_Penalty_Charging>  (342) 
0

>  <r_epik_Ionization_Penalty_Neutral>  (342) 
3.00375e-06

>  <r_epik_State_Penalty>  (342) 
-0

>  <r_epik_Charging_Adjusted_Penalty>  (342) 
0

>  <i_epik_Tot_Q>  (342) 
0

>  <i_epik_Tot_abs_Q>  (342) 
0

>  <s_epik_Chemistry_Notes>  (342) 
This compound has an ester and may undergo hydrolysis at high or low pH.

>  <s_lp_Force_Field>  (342) 
OPLS3e

>  <r_lp_Energy>  (342) 
170.022

>  <b_lp_Chiralities_Consistent>  (342) 
1

>  <s_lp_Variant>  (342) 
118:0-1

>  <s_i_glide_gridfile>  (342) 
pfpi4k_grid

>  <i_i_glide_lignum>  (342) 
40

>  <i_i_glide_rotatable_bonds>  (342) 
3

>  <r_i_docking_score>  (342) 
-1.85728

>  <r_i_glide_ligand_efficiency>  (342) 
-0.042211

>  <r_i_glide_ligand_efficiency_sa>  (342) 
-0.14902

>  <r_i_glide_ligand_efficiency_ln>  (342) 
-0.388213

>  <r_i_glide_gscore>  (342) 
-1.85728

>  <r_i_glide_lipo>  (342) 
-0.194306

>  <r_i_glide_hbond>  (342) 
0

>  <r_i_glide_metal>  (342) 
-0

>  <r_i_glide_rewards>  (342) 
0

>  <r_i_glide_evdw>  (342) 
-32.5994

>  <r_i_glide_ecoul>  (342) 
-0.485645

>  <r_i_glide_erotb>  (342) 
0.0571041

>  <r_i_glide_esite>  (342) 
-0.0172675

>  <r_i_glide_emodel>  (342) 
-36.1977

>  <r_i_glide_energy>  (342) 
-33.085

>  <r_i_glide_einternal>  (342) 
0.447055

>  <r_i_glide_intrahb_reward>  (342) 
-0

>  <i_i_glide_confnum>  (342) 
1

>  <i_i_glide_posenum>  (342) 
7

>  <r_i_glide_eff_state_penalty>  (342) 
0

>  <ligand_id>  (342) 
118

>  <original_smiles>  (342) 
CC(=O)OC1C2C3(C)C=CC(=O)C(C)(C)C3CCC2(C)C2(C)CCC3(C(C)CC4C(C5C3CCC(O)C5(C)C)C4(C)C)C12C

>  <smiles>  (342) 
[H]OC1([H])C([H])([H])C([H])([H])C2([H])C([H])(C3([H])C([H])(C([H])([H])C([H])(C([H])([H])[H])C24C([H])([H])C([H])([H])C2(C([H])([H])[H])C5(C([H])([H])[H])C([H])([H])C([H])([H])C6([H])C(C([H])([H])[H])(C([H])([H])[H])C(=O)C([H])=C([H])C6(C([H])([H])[H])C5([H])C([H])(OC(=O)C([H])([H])[H])C42C([H])([H])[H])C3(C([H])([H])[H])C([H])([H])[H])C1(C([H])([H])[H])C([H])([H])[H]

$$$$
